
*****
***** Welcome to the Xyce(TM) Parallel Electronic Simulator
*****
***** This is version Xyce Release 6.12-opensource
***** Date: Fri Jan 31 23:18:03 PST 2020


***** Executing netlist spice_decks.tau2020_testsuite0131/net_4.sp

***** Reading and parsing netlist...
Netlist warning: No print specified
Netlist warning in file
 ../../ASAP7_PDKandLIB_v1p6/asap7PDK_r1p6/models/hspice/7nm_TT.pm.modified at
 or near line 68
 No model parameter VERSION found for model NMOS_RVT of type NMOS, parameter
 ignored.
Netlist warning in file
 ../../ASAP7_PDKandLIB_v1p6/asap7PDK_r1p6/models/hspice/7nm_TT.pm.modified at
 or near line 68
 Device model NMOS_RVT: ADMSbsimcmg: Parameter EOTACC value 1e-10 out of range
 [ 0.1*1.0e-9,  (+inf) [
Netlist warning in file
 ../../ASAP7_PDKandLIB_v1p6/asap7PDK_r1p6/models/hspice/7nm_TT.pm.modified at
 or near line 324
 No model parameter VERSION found for model PMOS_RVT of type PMOS, parameter
 ignored.
***** Setting up topology...

Netlist warning: Voltage Node (XI9:N_NOXREF_6_1) does not have a DC path to
 ground
Netlist warning: Voltage Node (XI9:N_NOXREF_7_1) does not have a DC path to
 ground
Netlist warning: Voltage Node (XI10:N_NOXREF_7_1) does not have a DC path to
 ground
Netlist warning: Voltage Node (XI10:N_NOXREF_9_1) does not have a DC path to
 ground
Netlist warning: Voltage Node (XI9:N_NOXREF_8_1) does not have a DC path to
 ground
Netlist warning: Voltage Node (XI10:N_NOXREF_6_1) does not have a DC path to
 ground
Netlist warning: Voltage Node (XI9:N_NOXREF_5_1) does not have a DC path to
 ground
Netlist warning: Voltage Node (XI10:N_NOXREF_8_1) does not have a DC path to
 ground
***** Device Count Summary ...
       C level 1 (Capacitor)                  228
       m level 107 (BSIM-CMG FINFET v107.0.0)  38
       R level 1 (Resistor)                   277
       V level 1 (Independent Voltage Source)   3
       ------------------------------------------
       Total Devices                          546
***** Setting up matrix structure...
***** Number of Unknowns = 368
***** Initializing...

***** Beginning DC Operating Point Calculation...

***** Beginning Transient Calculation...

***** Percent complete: 1.00275 %
***** Current system time: Fri Jan 31 23:18:03 2020
***** Estimated time to completion: 31 sec.

***** Percent complete: 2.00549 %
***** Current system time: Fri Jan 31 23:18:03 2020
***** Estimated time to completion: 23 sec.

***** Percent complete: 3.00824 %
***** Current system time: Fri Jan 31 23:18:04 2020
***** Estimated time to completion: 20 sec.

***** Percent complete: 4.01098 %
***** Current system time: Fri Jan 31 23:18:04 2020
***** Estimated time to completion: 19 sec.

***** Percent complete: 5.01373 %
***** Current system time: Fri Jan 31 23:18:04 2020
***** Estimated time to completion: 18 sec.

***** Percent complete: 6.01648 %
***** Current system time: Fri Jan 31 23:18:04 2020
***** Estimated time to completion: 17 sec.

***** Percent complete: 7.01922 %
***** Current system time: Fri Jan 31 23:18:04 2020
***** Estimated time to completion: 17 sec.

***** Percent complete: 8.02197 %
***** Current system time: Fri Jan 31 23:18:04 2020
***** Estimated time to completion: 16 sec.

***** Percent complete: 9.02471 %
***** Current system time: Fri Jan 31 23:18:05 2020
***** Estimated time to completion: 16 sec.

***** Percent complete: 10.0275 %
***** Current system time: Fri Jan 31 23:18:05 2020
***** Estimated time to completion: 16 sec.

***** Percent complete: 11.0302 %
***** Current system time: Fri Jan 31 23:18:05 2020
***** Estimated time to completion: 15 sec.

***** Percent complete: 12.033 %
***** Current system time: Fri Jan 31 23:18:05 2020
***** Estimated time to completion: 15 sec.

***** Percent complete: 13.0357 %
***** Current system time: Fri Jan 31 23:18:05 2020
***** Estimated time to completion: 15 sec.

***** Percent complete: 14.0384 %
***** Current system time: Fri Jan 31 23:18:05 2020
***** Estimated time to completion: 14 sec.

***** Percent complete: 15.0427 %
***** Current system time: Fri Jan 31 23:18:06 2020
***** Estimated time to completion: 14 sec.

***** Percent complete: 16.0457 %
***** Current system time: Fri Jan 31 23:18:06 2020
***** Estimated time to completion: 14 sec.

***** Percent complete: 17.0498 %
***** Current system time: Fri Jan 31 23:18:06 2020
***** Estimated time to completion: 14 sec.

***** Percent complete: 18.0526 %
***** Current system time: Fri Jan 31 23:18:06 2020
***** Estimated time to completion: 14 sec.

***** Percent complete: 19.0556 %
***** Current system time: Fri Jan 31 23:18:06 2020
***** Estimated time to completion: 13 sec.

***** Percent complete: 20.0575 %
***** Current system time: Fri Jan 31 23:18:06 2020
***** Estimated time to completion: 13 sec.

***** Percent complete: 21.0608 %
***** Current system time: Fri Jan 31 23:18:07 2020
***** Estimated time to completion: 13 sec.

***** Percent complete: 22.0646 %
***** Current system time: Fri Jan 31 23:18:07 2020
***** Estimated time to completion: 13 sec.

***** Percent complete: 23.0673 %
***** Current system time: Fri Jan 31 23:18:07 2020
***** Estimated time to completion: 13 sec.

***** Percent complete: 24.0695 %
***** Current system time: Fri Jan 31 23:18:07 2020
***** Estimated time to completion: 13 sec.

***** Percent complete: 25.0726 %
***** Current system time: Fri Jan 31 23:18:07 2020
***** Estimated time to completion: 12 sec.

***** Percent complete: 26.0753 %
***** Current system time: Fri Jan 31 23:18:07 2020
***** Estimated time to completion: 12 sec.

***** Percent complete: 27.0785 %
***** Current system time: Fri Jan 31 23:18:08 2020
***** Estimated time to completion: 12 sec.

***** Percent complete: 28.0826 %
***** Current system time: Fri Jan 31 23:18:08 2020
***** Estimated time to completion: 12 sec.

***** Percent complete: 29.0841 %
***** Current system time: Fri Jan 31 23:18:08 2020
***** Estimated time to completion: 12 sec.

***** Percent complete: 30.0868 %
***** Current system time: Fri Jan 31 23:18:08 2020
***** Estimated time to completion: 11 sec.

***** Percent complete: 31.0896 %
***** Current system time: Fri Jan 31 23:18:08 2020
***** Estimated time to completion: 11 sec.

***** Percent complete: 32.0923 %
***** Current system time: Fri Jan 31 23:18:08 2020
***** Estimated time to completion: 11 sec.

***** Percent complete: 33.0951 %
***** Current system time: Fri Jan 31 23:18:09 2020
***** Estimated time to completion: 11 sec.

***** Percent complete: 34.0978 %
***** Current system time: Fri Jan 31 23:18:09 2020
***** Estimated time to completion: 11 sec.

***** Percent complete: 35.1005 %
***** Current system time: Fri Jan 31 23:18:09 2020
***** Estimated time to completion: 10 sec.

***** Percent complete: 36.1033 %
***** Current system time: Fri Jan 31 23:18:09 2020
***** Estimated time to completion: 10 sec.

***** Percent complete: 37.106 %
***** Current system time: Fri Jan 31 23:18:09 2020
***** Estimated time to completion: 10 sec.

***** Percent complete: 38.1088 %
***** Current system time: Fri Jan 31 23:18:09 2020
***** Estimated time to completion: 10 sec.

***** Percent complete: 39.1115 %
***** Current system time: Fri Jan 31 23:18:10 2020
***** Estimated time to completion: 10 sec.

***** Percent complete: 40.1143 %
***** Current system time: Fri Jan 31 23:18:10 2020
***** Estimated time to completion: 10 sec.

***** Percent complete: 41.117 %
***** Current system time: Fri Jan 31 23:18:10 2020
***** Estimated time to completion:  9 sec.

***** Percent complete: 42.1198 %
***** Current system time: Fri Jan 31 23:18:10 2020
***** Estimated time to completion:  9 sec.

***** Percent complete: 43.1225 %
***** Current system time: Fri Jan 31 23:18:10 2020
***** Estimated time to completion:  9 sec.

***** Percent complete: 44.1253 %
***** Current system time: Fri Jan 31 23:18:10 2020
***** Estimated time to completion:  9 sec.

***** Percent complete: 45.128 %
***** Current system time: Fri Jan 31 23:18:11 2020
***** Estimated time to completion:  9 sec.

***** Percent complete: 46.1308 %
***** Current system time: Fri Jan 31 23:18:11 2020
***** Estimated time to completion:  9 sec.

***** Percent complete: 47.1335 %
***** Current system time: Fri Jan 31 23:18:11 2020
***** Estimated time to completion:  8 sec.

***** Percent complete: 48.1362 %
***** Current system time: Fri Jan 31 23:18:11 2020
***** Estimated time to completion:  8 sec.

***** Percent complete: 49.139 %
***** Current system time: Fri Jan 31 23:18:11 2020
***** Estimated time to completion:  8 sec.

***** Percent complete: 50.1417 %
***** Current system time: Fri Jan 31 23:18:11 2020
***** Estimated time to completion:  8 sec.

***** Percent complete: 51.1445 %
***** Current system time: Fri Jan 31 23:18:12 2020
***** Estimated time to completion:  8 sec.

***** Percent complete: 52.1472 %
***** Current system time: Fri Jan 31 23:18:12 2020
***** Estimated time to completion:  7 sec.

***** Percent complete: 53.15 %
***** Current system time: Fri Jan 31 23:18:12 2020
***** Estimated time to completion:  7 sec.

***** Percent complete: 54.1527 %
***** Current system time: Fri Jan 31 23:18:12 2020
***** Estimated time to completion:  7 sec.

***** Percent complete: 55.1555 %
***** Current system time: Fri Jan 31 23:18:12 2020
***** Estimated time to completion:  7 sec.

***** Percent complete: 56.1582 %
***** Current system time: Fri Jan 31 23:18:12 2020
***** Estimated time to completion:  7 sec.

***** Percent complete: 57.161 %
***** Current system time: Fri Jan 31 23:18:12 2020
***** Estimated time to completion:  7 sec.

***** Percent complete: 58.1637 %
***** Current system time: Fri Jan 31 23:18:13 2020
***** Estimated time to completion:  6 sec.

***** Percent complete: 59.1665 %
***** Current system time: Fri Jan 31 23:18:13 2020
***** Estimated time to completion:  6 sec.

***** Percent complete: 60.1692 %
***** Current system time: Fri Jan 31 23:18:13 2020
***** Estimated time to completion:  6 sec.

***** Percent complete: 61.1719 %
***** Current system time: Fri Jan 31 23:18:13 2020
***** Estimated time to completion:  6 sec.

***** Percent complete: 62.1747 %
***** Current system time: Fri Jan 31 23:18:13 2020
***** Estimated time to completion:  6 sec.

***** Percent complete: 63.1774 %
***** Current system time: Fri Jan 31 23:18:13 2020
***** Estimated time to completion:  6 sec.

***** Percent complete: 64.1802 %
***** Current system time: Fri Jan 31 23:18:14 2020
***** Estimated time to completion:  5 sec.

***** Percent complete: 65.1823 %
***** Current system time: Fri Jan 31 23:18:14 2020
***** Estimated time to completion:  5 sec.

***** Percent complete: 66.1855 %
***** Current system time: Fri Jan 31 23:18:14 2020
***** Estimated time to completion:  5 sec.

***** Percent complete: 67.1895 %
***** Current system time: Fri Jan 31 23:18:14 2020
***** Estimated time to completion:  5 sec.

***** Percent complete: 68.1922 %
***** Current system time: Fri Jan 31 23:18:14 2020
***** Estimated time to completion:  5 sec.

***** Percent complete: 69.1954 %
***** Current system time: Fri Jan 31 23:18:14 2020
***** Estimated time to completion:  5 sec.

***** Percent complete: 70.1973 %
***** Current system time: Fri Jan 31 23:18:15 2020
***** Estimated time to completion:  4 sec.

***** Percent complete: 71.2005 %
***** Current system time: Fri Jan 31 23:18:15 2020
***** Estimated time to completion:  4 sec.

***** Percent complete: 72.201 %
***** Current system time: Fri Jan 31 23:18:15 2020
***** Estimated time to completion:  4 sec.

***** Percent complete: 73.2021 %
***** Current system time: Fri Jan 31 23:18:15 2020
***** Estimated time to completion:  4 sec.

***** Percent complete: 74.2049 %
***** Current system time: Fri Jan 31 23:18:15 2020
***** Estimated time to completion:  4 sec.

***** Percent complete: 75.2081 %
***** Current system time: Fri Jan 31 23:18:16 2020
***** Estimated time to completion:  4 sec.

***** Percent complete: 76.2108 %
***** Current system time: Fri Jan 31 23:18:16 2020
***** Estimated time to completion:  3 sec.

***** Percent complete: 77.214 %
***** Current system time: Fri Jan 31 23:18:16 2020
***** Estimated time to completion:  3 sec.

***** Percent complete: 78.218 %
***** Current system time: Fri Jan 31 23:18:16 2020
***** Estimated time to completion:  3 sec.

***** Percent complete: 79.2195 %
***** Current system time: Fri Jan 31 23:18:16 2020
***** Estimated time to completion:  3 sec.

***** Percent complete: 80.2222 %
***** Current system time: Fri Jan 31 23:18:16 2020
***** Estimated time to completion:  3 sec.

***** Percent complete: 81.225 %
***** Current system time: Fri Jan 31 23:18:17 2020
***** Estimated time to completion:  3 sec.

***** Percent complete: 82.2277 %
***** Current system time: Fri Jan 31 23:18:17 2020
***** Estimated time to completion:  2 sec.

***** Percent complete: 83.2304 %
***** Current system time: Fri Jan 31 23:18:17 2020
***** Estimated time to completion:  2 sec.

***** Percent complete: 84.2332 %
***** Current system time: Fri Jan 31 23:18:17 2020
***** Estimated time to completion:  2 sec.

***** Percent complete: 85.2359 %
***** Current system time: Fri Jan 31 23:18:17 2020
***** Estimated time to completion:  2 sec.

***** Percent complete: 86.2387 %
***** Current system time: Fri Jan 31 23:18:18 2020
***** Estimated time to completion:  2 sec.

***** Percent complete: 87.2414 %
***** Current system time: Fri Jan 31 23:18:18 2020
***** Estimated time to completion:  2 sec.

***** Percent complete: 88.2442 %
***** Current system time: Fri Jan 31 23:18:18 2020
***** Estimated time to completion:  2 sec.

***** Percent complete: 89.2469 %
***** Current system time: Fri Jan 31 23:18:18 2020
***** Estimated time to completion:  1 sec.

***** Percent complete: 90.2497 %
***** Current system time: Fri Jan 31 23:18:18 2020
***** Estimated time to completion:  1 sec.

***** Percent complete: 91.2524 %
***** Current system time: Fri Jan 31 23:18:19 2020
***** Estimated time to completion:  1 sec.

***** Percent complete: 92.2552 %
***** Current system time: Fri Jan 31 23:18:19 2020
***** Estimated time to completion:  1 sec.

***** Percent complete: 93.2579 %
***** Current system time: Fri Jan 31 23:18:19 2020
***** Estimated time to completion:  1 sec.

***** Percent complete: 94.2607 %
***** Current system time: Fri Jan 31 23:18:20 2020
***** Estimated time to completion:  1 sec.

***** Percent complete: 95.2634 %
***** Current system time: Fri Jan 31 23:18:20 2020
***** Estimated time to completion:  0 sec.

***** Percent complete: 96.2661 %
***** Current system time: Fri Jan 31 23:18:20 2020
***** Estimated time to completion:  0 sec.

***** Percent complete: 97.2689 %
***** Current system time: Fri Jan 31 23:18:20 2020
***** Estimated time to completion:  0 sec.

***** Percent complete: 98.2716 %
***** Current system time: Fri Jan 31 23:18:20 2020
***** Estimated time to completion:  0 sec.

***** Percent complete: 99.2744 %
***** Current system time: Fri Jan 31 23:18:20 2020
***** Estimated time to completion:  0 sec.

***** Problem read in and set up time: 0.0482352 seconds
 ***** DCOP time: 0.159383 seconds.  Breakdown follows:
	Number Successful Steps Taken:		1
	Number Failed Steps Attempted:		0
	Number Jacobians Evaluated:		294
	Number Iteration Matrix Factorizations:	0
	Number Linear Solves:			294
	Number Failed Linear Solves:		0
	Number Residual Evaluations:		313
	Number Nonlinear Convergence Failures:	0
	Total Residual Load Time:		0.0840921 seconds
	Total Jacobian Load Time:		0.00877047 seconds
	Total Linear Solution Time:		0.0300992 seconds

 ***** Transient Stepping time: 17.387 seconds.  Breakdown follows:
	Number Successful Steps Taken:		23767
	Number Failed Steps Attempted:		0
	Number Jacobians Evaluated:		23815
	Number Iteration Matrix Factorizations:	0
	Number Linear Solves:			23815
	Number Failed Linear Solves:		0
	Number Residual Evaluations:		47582
	Number Nonlinear Convergence Failures:	0
	Total Residual Load Time:		12.7986 seconds
	Total Jacobian Load Time:		1.08934 seconds
	Total Linear Solution Time:		2.51839 seconds


***** Solution Summary *****
	Number Successful Steps Taken:		23768
	Number Failed Steps Attempted:		0
	Number Jacobians Evaluated:		24109
	Number Iteration Matrix Factorizations:	0
	Number Linear Solves:			24109
	Number Failed Linear Solves:		0
	Number Residual Evaluations:		47895
	Number Nonlinear Convergence Failures:	0
	Total Residual Load Time:		12.8827 seconds
	Total Jacobian Load Time:		1.09811 seconds
	Total Linear Solution Time:		2.54849 seconds


 ***** Measure Functions ***** 

FALL_DELAY = 8.684502e-11 with trig time= 4.722583e-10 and targ time= 5.591033e-10
Measure Start Time= 0.000000e+00	Measure End Time= 2.363510e-09

RISE_DELAY = 1.037592e-10 with trig time= 1.654013e-09 and targ time= 1.757772e-09
Measure Start Time= 0.000000e+00	Measure End Time= 2.363510e-09

RISE_SLEW = 1.593213e-10 with trig time= 1.690165e-09 and targ time= 1.849487e-09
Measure Start Time= 0.000000e+00	Measure End Time= 2.363510e-09

FALL_SLEW = 1.273841e-10 with trig time= 5.011148e-10 and targ time= 6.284990e-10
Measure Start Time= 0.000000e+00	Measure End Time= 2.363510e-09


***** Total Simulation Solvers Run Time: 17.5471 seconds
***** Total Elapsed Run Time:            17.5953 seconds
*****
***** End of Xyce(TM) Simulation
*****

Timing summary of 1 processor
                 Stats                   Count       CPU Time              Wall Time
---------------------------------------- ----- --------------------- ---------------------
Xyce                                         1       17.201 (100.0%)       17.596 (100.0%)
  Analysis                                   1       17.158 (99.75%)       17.547 (99.72%)
    Transient                                1       17.158 (99.75%)       17.547 (99.72%)
      Nonlinear Solve                    23768       16.593 (96.46%)       16.935 (96.24%)
        Residual                         47895       12.734 (74.03%)       12.932 (73.49%)
        Jacobian                         24109        1.095 ( 6.37%)        1.122 ( 6.37%)
        Linear Solve                     24109        2.489 (14.47%)        2.571 (14.61%)
      Successful DCOP Steps                  1        0.000 (<0.01%)        0.000 (<0.01%)
      Successful Step                    23767        0.365 ( 2.12%)        0.387 ( 2.20%)
  Netlist Import                             1        0.038 ( 0.22%)        0.043 ( 0.24%)
    Parse Context                            1        0.015 ( 0.08%)        0.018 ( 0.10%)
    Distribute Devices                       1        0.020 ( 0.11%)        0.021 ( 0.12%)
    Verify Devices                           1        0.000 (<0.01%)        0.000 (<0.01%)
    Instantiate                              1        0.003 ( 0.02%)        0.003 ( 0.02%)
  Late Initialization                        1        0.003 ( 0.02%)        0.004 ( 0.02%)
    Global Indices                           1        0.002 (<0.01%)        0.002 (<0.01%)
  Setup Matrix Structure                     1        0.001 (<0.01%)        0.001 (<0.01%)

