
*****
***** Welcome to the Xyce(TM) Parallel Electronic Simulator
*****
***** This is version Xyce Release 6.12-opensource
***** Date: Fri Jan 31 22:00:09 PST 2020


***** Executing netlist spice_decks.tau2020_testsuite0131/net_6.sp

***** Reading and parsing netlist...
Netlist warning: No print specified
Netlist warning in file
 ../../ASAP7_PDKandLIB_v1p6/asap7PDK_r1p6/models/hspice/7nm_TT.pm.modified at
 or near line 68
 No model parameter VERSION found for model NMOS_RVT of type NMOS, parameter
 ignored.
Netlist warning in file
 ../../ASAP7_PDKandLIB_v1p6/asap7PDK_r1p6/models/hspice/7nm_TT.pm.modified at
 or near line 68
 Device model NMOS_RVT: ADMSbsimcmg: Parameter EOTACC value 1e-10 out of range
 [ 0.1*1.0e-9,  (+inf) [
Netlist warning in file
 ../../ASAP7_PDKandLIB_v1p6/asap7PDK_r1p6/models/hspice/7nm_TT.pm.modified at
 or near line 324
 No model parameter VERSION found for model PMOS_RVT of type PMOS, parameter
 ignored.
***** Setting up topology...

Netlist warning: Voltage Node (XI13:N_NOXREF_8_1) does not have a DC path to
 ground
Netlist warning: Voltage Node (XI14:N_NOXREF_6_1) does not have a DC path to
 ground
Netlist warning: Voltage Node (XI13:N_NOXREF_7_1) does not have a DC path to
 ground
Netlist warning: Voltage Node (XI13:N_NOXREF_6_1) does not have a DC path to
 ground
Netlist warning: Voltage Node (XI14:N_NOXREF_5_1) does not have a DC path to
 ground
Netlist warning: Voltage Node (XI14:N_NOXREF_8_1) does not have a DC path to
 ground
Netlist warning: Voltage Node (XI13:N_NOXREF_9_1) does not have a DC path to
 ground
Netlist warning: Voltage Node (XI14:N_NOXREF_7_1) does not have a DC path to
 ground
***** Device Count Summary ...
       C level 1 (Capacitor)                   338
       m level 107 (BSIM-CMG FINFET v107.0.0)   78
       R level 1 (Resistor)                    624
       V level 1 (Independent Voltage Source)    3
       -------------------------------------------
       Total Devices                          1043
***** Setting up matrix structure...
***** Number of Unknowns = 770
***** Initializing...

***** Beginning DC Operating Point Calculation...

***** Beginning Transient Calculation...

***** Percent complete: 1.00426 %
***** Current system time: Fri Jan 31 22:00:09 2020
***** Estimated time to completion: 52 sec.

***** Percent complete: 2.00851 %
***** Current system time: Fri Jan 31 22:00:09 2020
***** Estimated time to completion: 38 sec.

***** Percent complete: 3.01277 %
***** Current system time: Fri Jan 31 22:00:10 2020
***** Estimated time to completion: 33 sec.

***** Percent complete: 4.01703 %
***** Current system time: Fri Jan 31 22:00:10 2020
***** Estimated time to completion: 31 sec.

***** Percent complete: 5.02129 %
***** Current system time: Fri Jan 31 22:00:10 2020
***** Estimated time to completion: 29 sec.

***** Percent complete: 6.02554 %
***** Current system time: Fri Jan 31 22:00:10 2020
***** Estimated time to completion: 27 sec.

***** Percent complete: 7.0298 %
***** Current system time: Fri Jan 31 22:00:11 2020
***** Estimated time to completion: 26 sec.

***** Percent complete: 8.03406 %
***** Current system time: Fri Jan 31 22:00:11 2020
***** Estimated time to completion: 26 sec.

***** Percent complete: 9.03831 %
***** Current system time: Fri Jan 31 22:00:11 2020
***** Estimated time to completion: 25 sec.

***** Percent complete: 10.0426 %
***** Current system time: Fri Jan 31 22:00:11 2020
***** Estimated time to completion: 24 sec.

***** Percent complete: 11.0468 %
***** Current system time: Fri Jan 31 22:00:12 2020
***** Estimated time to completion: 24 sec.

***** Percent complete: 12.0502 %
***** Current system time: Fri Jan 31 22:00:12 2020
***** Estimated time to completion: 23 sec.

***** Percent complete: 13.0523 %
***** Current system time: Fri Jan 31 22:00:12 2020
***** Estimated time to completion: 23 sec.

***** Percent complete: 14.0557 %
***** Current system time: Fri Jan 31 22:00:12 2020
***** Estimated time to completion: 23 sec.

***** Percent complete: 15.0591 %
***** Current system time: Fri Jan 31 22:00:13 2020
***** Estimated time to completion: 23 sec.

***** Percent complete: 16.0601 %
***** Current system time: Fri Jan 31 22:00:13 2020
***** Estimated time to completion: 22 sec.

***** Percent complete: 17.0609 %
***** Current system time: Fri Jan 31 22:00:13 2020
***** Estimated time to completion: 22 sec.

***** Percent complete: 18.066 %
***** Current system time: Fri Jan 31 22:00:14 2020
***** Estimated time to completion: 22 sec.

***** Percent complete: 19.0698 %
***** Current system time: Fri Jan 31 22:00:14 2020
***** Estimated time to completion: 22 sec.

***** Percent complete: 20.0706 %
***** Current system time: Fri Jan 31 22:00:14 2020
***** Estimated time to completion: 21 sec.

***** Percent complete: 21.0707 %
***** Current system time: Fri Jan 31 22:00:14 2020
***** Estimated time to completion: 21 sec.

***** Percent complete: 22.0732 %
***** Current system time: Fri Jan 31 22:00:15 2020
***** Estimated time to completion: 21 sec.

***** Percent complete: 23.0734 %
***** Current system time: Fri Jan 31 22:00:15 2020
***** Estimated time to completion: 20 sec.

***** Percent complete: 24.0777 %
***** Current system time: Fri Jan 31 22:00:15 2020
***** Estimated time to completion: 20 sec.

***** Percent complete: 25.0819 %
***** Current system time: Fri Jan 31 22:00:15 2020
***** Estimated time to completion: 20 sec.

***** Percent complete: 26.0862 %
***** Current system time: Fri Jan 31 22:00:16 2020
***** Estimated time to completion: 19 sec.

***** Percent complete: 27.0904 %
***** Current system time: Fri Jan 31 22:00:16 2020
***** Estimated time to completion: 19 sec.

***** Percent complete: 28.0947 %
***** Current system time: Fri Jan 31 22:00:16 2020
***** Estimated time to completion: 19 sec.

***** Percent complete: 29.099 %
***** Current system time: Fri Jan 31 22:00:16 2020
***** Estimated time to completion: 19 sec.

***** Percent complete: 30.1032 %
***** Current system time: Fri Jan 31 22:00:17 2020
***** Estimated time to completion: 18 sec.

***** Percent complete: 31.1075 %
***** Current system time: Fri Jan 31 22:00:17 2020
***** Estimated time to completion: 18 sec.

***** Percent complete: 32.1117 %
***** Current system time: Fri Jan 31 22:00:17 2020
***** Estimated time to completion: 18 sec.

***** Percent complete: 33.116 %
***** Current system time: Fri Jan 31 22:00:17 2020
***** Estimated time to completion: 17 sec.

***** Percent complete: 34.1202 %
***** Current system time: Fri Jan 31 22:00:18 2020
***** Estimated time to completion: 17 sec.

***** Percent complete: 35.1245 %
***** Current system time: Fri Jan 31 22:00:18 2020
***** Estimated time to completion: 17 sec.

***** Percent complete: 36.1288 %
***** Current system time: Fri Jan 31 22:00:18 2020
***** Estimated time to completion: 16 sec.

***** Percent complete: 37.133 %
***** Current system time: Fri Jan 31 22:00:18 2020
***** Estimated time to completion: 16 sec.

***** Percent complete: 38.1373 %
***** Current system time: Fri Jan 31 22:00:19 2020
***** Estimated time to completion: 16 sec.

***** Percent complete: 39.1415 %
***** Current system time: Fri Jan 31 22:00:19 2020
***** Estimated time to completion: 16 sec.

***** Percent complete: 40.1458 %
***** Current system time: Fri Jan 31 22:00:19 2020
***** Estimated time to completion: 15 sec.

***** Percent complete: 41.15 %
***** Current system time: Fri Jan 31 22:00:19 2020
***** Estimated time to completion: 15 sec.

***** Percent complete: 42.1543 %
***** Current system time: Fri Jan 31 22:00:20 2020
***** Estimated time to completion: 15 sec.

***** Percent complete: 43.1586 %
***** Current system time: Fri Jan 31 22:00:20 2020
***** Estimated time to completion: 15 sec.

***** Percent complete: 44.1628 %
***** Current system time: Fri Jan 31 22:00:20 2020
***** Estimated time to completion: 14 sec.

***** Percent complete: 45.1671 %
***** Current system time: Fri Jan 31 22:00:21 2020
***** Estimated time to completion: 14 sec.

***** Percent complete: 46.1713 %
***** Current system time: Fri Jan 31 22:00:21 2020
***** Estimated time to completion: 14 sec.

***** Percent complete: 47.1756 %
***** Current system time: Fri Jan 31 22:00:21 2020
***** Estimated time to completion: 13 sec.

***** Percent complete: 48.1798 %
***** Current system time: Fri Jan 31 22:00:21 2020
***** Estimated time to completion: 13 sec.

***** Percent complete: 49.1841 %
***** Current system time: Fri Jan 31 22:00:22 2020
***** Estimated time to completion: 13 sec.

***** Percent complete: 50.1884 %
***** Current system time: Fri Jan 31 22:00:22 2020
***** Estimated time to completion: 13 sec.

***** Percent complete: 51.1926 %
***** Current system time: Fri Jan 31 22:00:22 2020
***** Estimated time to completion: 12 sec.

***** Percent complete: 52.1969 %
***** Current system time: Fri Jan 31 22:00:22 2020
***** Estimated time to completion: 12 sec.

***** Percent complete: 53.2011 %
***** Current system time: Fri Jan 31 22:00:23 2020
***** Estimated time to completion: 12 sec.

***** Percent complete: 54.2054 %
***** Current system time: Fri Jan 31 22:00:23 2020
***** Estimated time to completion: 12 sec.

***** Percent complete: 55.2096 %
***** Current system time: Fri Jan 31 22:00:23 2020
***** Estimated time to completion: 11 sec.

***** Percent complete: 56.2139 %
***** Current system time: Fri Jan 31 22:00:23 2020
***** Estimated time to completion: 11 sec.

***** Percent complete: 57.2182 %
***** Current system time: Fri Jan 31 22:00:24 2020
***** Estimated time to completion: 11 sec.

***** Percent complete: 58.2224 %
***** Current system time: Fri Jan 31 22:00:24 2020
***** Estimated time to completion: 10 sec.

***** Percent complete: 59.2267 %
***** Current system time: Fri Jan 31 22:00:24 2020
***** Estimated time to completion: 10 sec.

***** Percent complete: 60.2309 %
***** Current system time: Fri Jan 31 22:00:24 2020
***** Estimated time to completion: 10 sec.

***** Percent complete: 61.2352 %
***** Current system time: Fri Jan 31 22:00:25 2020
***** Estimated time to completion: 10 sec.

***** Percent complete: 62.2377 %
***** Current system time: Fri Jan 31 22:00:25 2020
***** Estimated time to completion:  9 sec.

***** Percent complete: 63.2382 %
***** Current system time: Fri Jan 31 22:00:25 2020
***** Estimated time to completion:  9 sec.

***** Percent complete: 64.2408 %
***** Current system time: Fri Jan 31 22:00:25 2020
***** Estimated time to completion:  9 sec.

***** Percent complete: 65.2423 %
***** Current system time: Fri Jan 31 22:00:26 2020
***** Estimated time to completion:  9 sec.

***** Percent complete: 66.2471 %
***** Current system time: Fri Jan 31 22:00:26 2020
***** Estimated time to completion:  8 sec.

***** Percent complete: 67.2476 %
***** Current system time: Fri Jan 31 22:00:26 2020
***** Estimated time to completion:  8 sec.

***** Percent complete: 68.2518 %
***** Current system time: Fri Jan 31 22:00:26 2020
***** Estimated time to completion:  8 sec.

***** Percent complete: 69.2534 %
***** Current system time: Fri Jan 31 22:00:27 2020
***** Estimated time to completion:  8 sec.

***** Percent complete: 70.2565 %
***** Current system time: Fri Jan 31 22:00:27 2020
***** Estimated time to completion:  7 sec.

***** Percent complete: 71.2619 %
***** Current system time: Fri Jan 31 22:00:27 2020
***** Estimated time to completion:  7 sec.

***** Percent complete: 72.2645 %
***** Current system time: Fri Jan 31 22:00:28 2020
***** Estimated time to completion:  7 sec.

***** Percent complete: 73.2698 %
***** Current system time: Fri Jan 31 22:00:28 2020
***** Estimated time to completion:  7 sec.

***** Percent complete: 74.2741 %
***** Current system time: Fri Jan 31 22:00:28 2020
***** Estimated time to completion:  6 sec.

***** Percent complete: 75.2784 %
***** Current system time: Fri Jan 31 22:00:28 2020
***** Estimated time to completion:  6 sec.

***** Percent complete: 76.2826 %
***** Current system time: Fri Jan 31 22:00:29 2020
***** Estimated time to completion:  6 sec.

***** Percent complete: 77.2869 %
***** Current system time: Fri Jan 31 22:00:29 2020
***** Estimated time to completion:  5 sec.

***** Percent complete: 78.2911 %
***** Current system time: Fri Jan 31 22:00:29 2020
***** Estimated time to completion:  5 sec.

***** Percent complete: 79.2954 %
***** Current system time: Fri Jan 31 22:00:29 2020
***** Estimated time to completion:  5 sec.

***** Percent complete: 80.2996 %
***** Current system time: Fri Jan 31 22:00:30 2020
***** Estimated time to completion:  5 sec.

***** Percent complete: 81.3039 %
***** Current system time: Fri Jan 31 22:00:30 2020
***** Estimated time to completion:  4 sec.

***** Percent complete: 82.3082 %
***** Current system time: Fri Jan 31 22:00:30 2020
***** Estimated time to completion:  4 sec.

***** Percent complete: 83.3124 %
***** Current system time: Fri Jan 31 22:00:31 2020
***** Estimated time to completion:  4 sec.

***** Percent complete: 84.3167 %
***** Current system time: Fri Jan 31 22:00:31 2020
***** Estimated time to completion:  4 sec.

***** Percent complete: 85.3209 %
***** Current system time: Fri Jan 31 22:00:31 2020
***** Estimated time to completion:  3 sec.

***** Percent complete: 86.3252 %
***** Current system time: Fri Jan 31 22:00:31 2020
***** Estimated time to completion:  3 sec.

***** Percent complete: 87.3294 %
***** Current system time: Fri Jan 31 22:00:32 2020
***** Estimated time to completion:  3 sec.

***** Percent complete: 88.3337 %
***** Current system time: Fri Jan 31 22:00:32 2020
***** Estimated time to completion:  3 sec.

***** Percent complete: 89.338 %
***** Current system time: Fri Jan 31 22:00:32 2020
***** Estimated time to completion:  2 sec.

***** Percent complete: 90.3422 %
***** Current system time: Fri Jan 31 22:00:32 2020
***** Estimated time to completion:  2 sec.

***** Percent complete: 91.3465 %
***** Current system time: Fri Jan 31 22:00:33 2020
***** Estimated time to completion:  2 sec.

***** Percent complete: 92.3507 %
***** Current system time: Fri Jan 31 22:00:33 2020
***** Estimated time to completion:  2 sec.

***** Percent complete: 93.355 %
***** Current system time: Fri Jan 31 22:00:33 2020
***** Estimated time to completion:  1 sec.

***** Percent complete: 94.3592 %
***** Current system time: Fri Jan 31 22:00:33 2020
***** Estimated time to completion:  1 sec.

***** Percent complete: 95.3635 %
***** Current system time: Fri Jan 31 22:00:34 2020
***** Estimated time to completion:  1 sec.

***** Percent complete: 96.3678 %
***** Current system time: Fri Jan 31 22:00:34 2020
***** Estimated time to completion:  0 sec.

***** Percent complete: 97.372 %
***** Current system time: Fri Jan 31 22:00:34 2020
***** Estimated time to completion:  0 sec.

***** Percent complete: 98.3763 %
***** Current system time: Fri Jan 31 22:00:34 2020
***** Estimated time to completion:  0 sec.

***** Percent complete: 99.3805 %
***** Current system time: Fri Jan 31 22:00:35 2020
***** Estimated time to completion:  0 sec.

***** Problem read in and set up time: 0.063297 seconds
 ***** DCOP time: 0.282111 seconds.  Breakdown follows:
	Number Successful Steps Taken:		1
	Number Failed Steps Attempted:		0
	Number Jacobians Evaluated:		297
	Number Iteration Matrix Factorizations:	0
	Number Linear Solves:			297
	Number Failed Linear Solves:		0
	Number Residual Evaluations:		323
	Number Nonlinear Convergence Failures:	0
	Total Residual Load Time:		0.165775 seconds
	Total Jacobian Load Time:		0.0160892 seconds
	Total Linear Solution Time:		0.0570216 seconds

 ***** Transient Stepping time: 25.9729 seconds.  Breakdown follows:
	Number Successful Steps Taken:		18426
	Number Failed Steps Attempted:		0
	Number Jacobians Evaluated:		18546
	Number Iteration Matrix Factorizations:	0
	Number Linear Solves:			18546
	Number Failed Linear Solves:		0
	Number Residual Evaluations:		36972
	Number Nonlinear Convergence Failures:	0
	Total Residual Load Time:		19.5765 seconds
	Total Jacobian Load Time:		1.54397 seconds
	Total Linear Solution Time:		3.76665 seconds


***** Solution Summary *****
	Number Successful Steps Taken:		18427
	Number Failed Steps Attempted:		0
	Number Jacobians Evaluated:		18843
	Number Iteration Matrix Factorizations:	0
	Number Linear Solves:			18843
	Number Failed Linear Solves:		0
	Number Residual Evaluations:		37295
	Number Nonlinear Convergence Failures:	0
	Total Residual Load Time:		19.7423 seconds
	Total Jacobian Load Time:		1.56005 seconds
	Total Linear Solution Time:		3.82367 seconds


 ***** Measure Functions ***** 

RISE_DELAY = 5.914590e-11 with trig time= 2.882369e-10 and targ time= 3.473828e-10
Measure Start Time= 0.000000e+00	Measure End Time= 1.832200e-09

FALL_DELAY = 6.702457e-11 with trig time= 1.204342e-09 and targ time= 1.271366e-09
Measure Start Time= 0.000000e+00	Measure End Time= 1.832200e-09

RISE_SLEW = 2.449390e-11 with trig time= 3.362670e-10 and targ time= 3.607609e-10
Measure Start Time= 0.000000e+00	Measure End Time= 1.832200e-09

FALL_SLEW = 2.404455e-11 with trig time= 1.259504e-09 and targ time= 1.283548e-09
Measure Start Time= 0.000000e+00	Measure End Time= 1.832200e-09


***** Total Simulation Solvers Run Time: 26.2556 seconds
***** Total Elapsed Run Time:            26.3189 seconds
*****
***** End of Xyce(TM) Simulation
*****

Timing summary of 1 processor
                 Stats                   Count       CPU Time              Wall Time
---------------------------------------- ----- --------------------- ---------------------
Xyce                                         1       26.127 (100.0%)       26.320 (100.0%)
  Analysis                                   1       26.068 (99.77%)       26.255 (99.76%)
    Transient                                1       26.068 (99.77%)       26.255 (99.76%)
      Nonlinear Solve                    18427       25.405 (97.24%)       25.563 (97.13%)
        Residual                         37295       19.703 (75.41%)       19.787 (75.18%)
        Jacobian                         18843        1.565 ( 5.99%)        1.580 ( 6.00%)
        Linear Solve                     18843        3.809 (14.58%)        3.844 (14.60%)
      Successful DCOP Steps                  1        0.000 (<0.01%)        0.000 (<0.01%)
      Successful Step                    18426        0.417 ( 1.60%)        0.427 ( 1.62%)
  Netlist Import                             1        0.051 ( 0.20%)        0.055 ( 0.21%)
    Parse Context                            1        0.011 ( 0.04%)        0.013 ( 0.05%)
    Distribute Devices                       1        0.033 ( 0.13%)        0.035 ( 0.13%)
    Verify Devices                           1        0.000 (<0.01%)        0.000 (<0.01%)
    Instantiate                              1        0.006 ( 0.02%)        0.006 ( 0.02%)
  Late Initialization                        1        0.006 ( 0.02%)        0.006 ( 0.02%)
    Global Indices                           1        0.003 ( 0.01%)        0.003 ( 0.01%)
  Setup Matrix Structure                     1        0.002 (<0.01%)        0.002 (<0.01%)

