
*****
***** Welcome to the Xyce(TM) Parallel Electronic Simulator
*****
***** This is version Xyce Release 6.12-opensource
***** Date: Fri Jan 31 23:18:47 PST 2020


***** Executing netlist spice_decks.tau2020_testsuite0131/net_7.sp

***** Reading and parsing netlist...
Netlist warning: No print specified
Netlist warning in file
 ../../ASAP7_PDKandLIB_v1p6/asap7PDK_r1p6/models/hspice/7nm_TT.pm.modified at
 or near line 68
 No model parameter VERSION found for model NMOS_RVT of type NMOS, parameter
 ignored.
Netlist warning in file
 ../../ASAP7_PDKandLIB_v1p6/asap7PDK_r1p6/models/hspice/7nm_TT.pm.modified at
 or near line 68
 Device model NMOS_RVT: ADMSbsimcmg: Parameter EOTACC value 1e-10 out of range
 [ 0.1*1.0e-9,  (+inf) [
Netlist warning in file
 ../../ASAP7_PDKandLIB_v1p6/asap7PDK_r1p6/models/hspice/7nm_TT.pm.modified at
 or near line 324
 No model parameter VERSION found for model PMOS_RVT of type PMOS, parameter
 ignored.
***** Setting up topology...

Netlist warning: Voltage Node (XI15:N_NOXREF_12_1) does not have a DC path to
 ground
Netlist warning: Voltage Node (XI15:N_NOXREF_10_1) does not have a DC path to
 ground
Netlist warning: Voltage Node (XI15:N_NOXREF_13_1) does not have a DC path to
 ground
Netlist warning: Voltage Node (XI16:N_NOXREF_13_1) does not have a DC path to
 ground
Netlist warning: Voltage Node (XI15:N_NOXREF_11_1) does not have a DC path to
 ground
Netlist warning: Voltage Node (XI16:N_NOXREF_12_1) does not have a DC path to
 ground
Netlist warning: Voltage Node (XI16:N_NOXREF_10_1) does not have a DC path to
 ground
Netlist warning: Voltage Node (XI16:N_NOXREF_11_1) does not have a DC path to
 ground
***** Device Count Summary ...
       C level 1 (Capacitor)                  173
       m level 107 (BSIM-CMG FINFET v107.0.0)  16
       R level 1 (Resistor)                   153
       V level 1 (Independent Voltage Source)   3
       ------------------------------------------
       Total Devices                          345
***** Setting up matrix structure...
***** Number of Unknowns = 207
***** Initializing...

***** Beginning DC Operating Point Calculation...

***** Beginning Transient Calculation...

***** Percent complete: 1.00456 %
***** Current system time: Fri Jan 31 23:18:47 2020
***** Estimated time to completion: 26 sec.

***** Percent complete: 2.00912 %
***** Current system time: Fri Jan 31 23:18:48 2020
***** Estimated time to completion: 15 sec.

***** Percent complete: 3.01369 %
***** Current system time: Fri Jan 31 23:18:48 2020
***** Estimated time to completion: 11 sec.

***** Percent complete: 4.01825 %
***** Current system time: Fri Jan 31 23:18:48 2020
***** Estimated time to completion:  9 sec.

***** Percent complete: 5.02281 %
***** Current system time: Fri Jan 31 23:18:48 2020
***** Estimated time to completion:  8 sec.

***** Percent complete: 6.02737 %
***** Current system time: Fri Jan 31 23:18:48 2020
***** Estimated time to completion:  8 sec.

***** Percent complete: 7.03193 %
***** Current system time: Fri Jan 31 23:18:48 2020
***** Estimated time to completion:  7 sec.

***** Percent complete: 8.03588 %
***** Current system time: Fri Jan 31 23:18:48 2020
***** Estimated time to completion:  7 sec.

***** Percent complete: 9.03658 %
***** Current system time: Fri Jan 31 23:18:48 2020
***** Estimated time to completion:  6 sec.

***** Percent complete: 10.0392 %
***** Current system time: Fri Jan 31 23:18:48 2020
***** Estimated time to completion:  6 sec.

***** Percent complete: 11.0392 %
***** Current system time: Fri Jan 31 23:18:48 2020
***** Estimated time to completion:  6 sec.

***** Percent complete: 12.0422 %
***** Current system time: Fri Jan 31 23:18:48 2020
***** Estimated time to completion:  6 sec.

***** Percent complete: 13.0484 %
***** Current system time: Fri Jan 31 23:18:48 2020
***** Estimated time to completion:  5 sec.

***** Percent complete: 14.0509 %
***** Current system time: Fri Jan 31 23:18:48 2020
***** Estimated time to completion:  5 sec.

***** Percent complete: 15.0533 %
***** Current system time: Fri Jan 31 23:18:48 2020
***** Estimated time to completion:  5 sec.

***** Percent complete: 16.0549 %
***** Current system time: Fri Jan 31 23:18:48 2020
***** Estimated time to completion:  5 sec.

***** Percent complete: 17.0595 %
***** Current system time: Fri Jan 31 23:18:48 2020
***** Estimated time to completion:  5 sec.

***** Percent complete: 18.064 %
***** Current system time: Fri Jan 31 23:18:48 2020
***** Estimated time to completion:  5 sec.

***** Percent complete: 19.0686 %
***** Current system time: Fri Jan 31 23:18:48 2020
***** Estimated time to completion:  5 sec.

***** Percent complete: 20.0731 %
***** Current system time: Fri Jan 31 23:18:48 2020
***** Estimated time to completion:  5 sec.

***** Percent complete: 21.0777 %
***** Current system time: Fri Jan 31 23:18:49 2020
***** Estimated time to completion:  4 sec.

***** Percent complete: 22.0823 %
***** Current system time: Fri Jan 31 23:18:49 2020
***** Estimated time to completion:  4 sec.

***** Percent complete: 23.0868 %
***** Current system time: Fri Jan 31 23:18:49 2020
***** Estimated time to completion:  4 sec.

***** Percent complete: 24.0914 %
***** Current system time: Fri Jan 31 23:18:49 2020
***** Estimated time to completion:  4 sec.

***** Percent complete: 25.0959 %
***** Current system time: Fri Jan 31 23:18:49 2020
***** Estimated time to completion:  4 sec.

***** Percent complete: 26.1005 %
***** Current system time: Fri Jan 31 23:18:49 2020
***** Estimated time to completion:  4 sec.

***** Percent complete: 27.1051 %
***** Current system time: Fri Jan 31 23:18:49 2020
***** Estimated time to completion:  4 sec.

***** Percent complete: 28.1096 %
***** Current system time: Fri Jan 31 23:18:49 2020
***** Estimated time to completion:  4 sec.

***** Percent complete: 29.1142 %
***** Current system time: Fri Jan 31 23:18:49 2020
***** Estimated time to completion:  4 sec.

***** Percent complete: 30.1188 %
***** Current system time: Fri Jan 31 23:18:49 2020
***** Estimated time to completion:  4 sec.

***** Percent complete: 31.1233 %
***** Current system time: Fri Jan 31 23:18:49 2020
***** Estimated time to completion:  4 sec.

***** Percent complete: 32.1279 %
***** Current system time: Fri Jan 31 23:18:49 2020
***** Estimated time to completion:  4 sec.

***** Percent complete: 33.1324 %
***** Current system time: Fri Jan 31 23:18:49 2020
***** Estimated time to completion:  3 sec.

***** Percent complete: 34.137 %
***** Current system time: Fri Jan 31 23:18:49 2020
***** Estimated time to completion:  3 sec.

***** Percent complete: 35.1416 %
***** Current system time: Fri Jan 31 23:18:49 2020
***** Estimated time to completion:  3 sec.

***** Percent complete: 36.1461 %
***** Current system time: Fri Jan 31 23:18:49 2020
***** Estimated time to completion:  3 sec.

***** Percent complete: 37.1507 %
***** Current system time: Fri Jan 31 23:18:49 2020
***** Estimated time to completion:  3 sec.

***** Percent complete: 38.1553 %
***** Current system time: Fri Jan 31 23:18:49 2020
***** Estimated time to completion:  3 sec.

***** Percent complete: 39.1598 %
***** Current system time: Fri Jan 31 23:18:49 2020
***** Estimated time to completion:  3 sec.

***** Percent complete: 40.1644 %
***** Current system time: Fri Jan 31 23:18:50 2020
***** Estimated time to completion:  3 sec.

***** Percent complete: 41.1689 %
***** Current system time: Fri Jan 31 23:18:50 2020
***** Estimated time to completion:  3 sec.

***** Percent complete: 42.1735 %
***** Current system time: Fri Jan 31 23:18:50 2020
***** Estimated time to completion:  3 sec.

***** Percent complete: 43.1781 %
***** Current system time: Fri Jan 31 23:18:50 2020
***** Estimated time to completion:  3 sec.

***** Percent complete: 44.1826 %
***** Current system time: Fri Jan 31 23:18:50 2020
***** Estimated time to completion:  3 sec.

***** Percent complete: 45.1872 %
***** Current system time: Fri Jan 31 23:18:50 2020
***** Estimated time to completion:  3 sec.

***** Percent complete: 46.1917 %
***** Current system time: Fri Jan 31 23:18:50 2020
***** Estimated time to completion:  3 sec.

***** Percent complete: 47.1963 %
***** Current system time: Fri Jan 31 23:18:50 2020
***** Estimated time to completion:  3 sec.

***** Percent complete: 48.2009 %
***** Current system time: Fri Jan 31 23:18:50 2020
***** Estimated time to completion:  2 sec.

***** Percent complete: 49.2054 %
***** Current system time: Fri Jan 31 23:18:50 2020
***** Estimated time to completion:  2 sec.

***** Percent complete: 50.21 %
***** Current system time: Fri Jan 31 23:18:50 2020
***** Estimated time to completion:  2 sec.

***** Percent complete: 51.2146 %
***** Current system time: Fri Jan 31 23:18:50 2020
***** Estimated time to completion:  2 sec.

***** Percent complete: 52.2191 %
***** Current system time: Fri Jan 31 23:18:50 2020
***** Estimated time to completion:  2 sec.

***** Percent complete: 53.2237 %
***** Current system time: Fri Jan 31 23:18:50 2020
***** Estimated time to completion:  2 sec.

***** Percent complete: 54.2282 %
***** Current system time: Fri Jan 31 23:18:50 2020
***** Estimated time to completion:  2 sec.

***** Percent complete: 55.2328 %
***** Current system time: Fri Jan 31 23:18:50 2020
***** Estimated time to completion:  2 sec.

***** Percent complete: 56.2374 %
***** Current system time: Fri Jan 31 23:18:50 2020
***** Estimated time to completion:  2 sec.

***** Percent complete: 57.2419 %
***** Current system time: Fri Jan 31 23:18:50 2020
***** Estimated time to completion:  2 sec.

***** Percent complete: 58.2425 %
***** Current system time: Fri Jan 31 23:18:50 2020
***** Estimated time to completion:  2 sec.

***** Percent complete: 59.2493 %
***** Current system time: Fri Jan 31 23:18:51 2020
***** Estimated time to completion:  2 sec.

***** Percent complete: 60.252 %
***** Current system time: Fri Jan 31 23:18:51 2020
***** Estimated time to completion:  2 sec.

***** Percent complete: 61.2527 %
***** Current system time: Fri Jan 31 23:18:51 2020
***** Estimated time to completion:  2 sec.

***** Percent complete: 62.2556 %
***** Current system time: Fri Jan 31 23:18:51 2020
***** Estimated time to completion:  2 sec.

***** Percent complete: 63.2618 %
***** Current system time: Fri Jan 31 23:18:51 2020
***** Estimated time to completion:  2 sec.

***** Percent complete: 64.2644 %
***** Current system time: Fri Jan 31 23:18:51 2020
***** Estimated time to completion:  2 sec.

***** Percent complete: 65.2662 %
***** Current system time: Fri Jan 31 23:18:51 2020
***** Estimated time to completion:  1 sec.

***** Percent complete: 66.2684 %
***** Current system time: Fri Jan 31 23:18:51 2020
***** Estimated time to completion:  1 sec.

***** Percent complete: 67.273 %
***** Current system time: Fri Jan 31 23:18:51 2020
***** Estimated time to completion:  1 sec.

***** Percent complete: 68.2775 %
***** Current system time: Fri Jan 31 23:18:51 2020
***** Estimated time to completion:  1 sec.

***** Percent complete: 69.2821 %
***** Current system time: Fri Jan 31 23:18:51 2020
***** Estimated time to completion:  1 sec.

***** Percent complete: 70.2866 %
***** Current system time: Fri Jan 31 23:18:51 2020
***** Estimated time to completion:  1 sec.

***** Percent complete: 71.2912 %
***** Current system time: Fri Jan 31 23:18:51 2020
***** Estimated time to completion:  1 sec.

***** Percent complete: 72.2958 %
***** Current system time: Fri Jan 31 23:18:51 2020
***** Estimated time to completion:  1 sec.

***** Percent complete: 73.3003 %
***** Current system time: Fri Jan 31 23:18:51 2020
***** Estimated time to completion:  1 sec.

***** Percent complete: 74.3049 %
***** Current system time: Fri Jan 31 23:18:51 2020
***** Estimated time to completion:  1 sec.

***** Percent complete: 75.3095 %
***** Current system time: Fri Jan 31 23:18:51 2020
***** Estimated time to completion:  1 sec.

***** Percent complete: 76.314 %
***** Current system time: Fri Jan 31 23:18:51 2020
***** Estimated time to completion:  1 sec.

***** Percent complete: 77.3186 %
***** Current system time: Fri Jan 31 23:18:52 2020
***** Estimated time to completion:  1 sec.

***** Percent complete: 78.3231 %
***** Current system time: Fri Jan 31 23:18:52 2020
***** Estimated time to completion:  1 sec.

***** Percent complete: 79.3277 %
***** Current system time: Fri Jan 31 23:18:52 2020
***** Estimated time to completion:  1 sec.

***** Percent complete: 80.3323 %
***** Current system time: Fri Jan 31 23:18:52 2020
***** Estimated time to completion:  1 sec.

***** Percent complete: 81.3368 %
***** Current system time: Fri Jan 31 23:18:52 2020
***** Estimated time to completion:  1 sec.

***** Percent complete: 82.3414 %
***** Current system time: Fri Jan 31 23:18:52 2020
***** Estimated time to completion:  0 sec.

***** Percent complete: 83.3459 %
***** Current system time: Fri Jan 31 23:18:52 2020
***** Estimated time to completion:  0 sec.

***** Percent complete: 84.3505 %
***** Current system time: Fri Jan 31 23:18:52 2020
***** Estimated time to completion:  0 sec.

***** Percent complete: 85.3551 %
***** Current system time: Fri Jan 31 23:18:52 2020
***** Estimated time to completion:  0 sec.

***** Percent complete: 86.3596 %
***** Current system time: Fri Jan 31 23:18:52 2020
***** Estimated time to completion:  0 sec.

***** Percent complete: 87.3642 %
***** Current system time: Fri Jan 31 23:18:52 2020
***** Estimated time to completion:  0 sec.

***** Percent complete: 88.3688 %
***** Current system time: Fri Jan 31 23:18:52 2020
***** Estimated time to completion:  0 sec.

***** Percent complete: 89.3733 %
***** Current system time: Fri Jan 31 23:18:52 2020
***** Estimated time to completion:  0 sec.

***** Percent complete: 90.3779 %
***** Current system time: Fri Jan 31 23:18:52 2020
***** Estimated time to completion:  0 sec.

***** Percent complete: 91.3824 %
***** Current system time: Fri Jan 31 23:18:52 2020
***** Estimated time to completion:  0 sec.

***** Percent complete: 92.387 %
***** Current system time: Fri Jan 31 23:18:52 2020
***** Estimated time to completion:  0 sec.

***** Percent complete: 93.3916 %
***** Current system time: Fri Jan 31 23:18:52 2020
***** Estimated time to completion:  0 sec.

***** Percent complete: 94.3961 %
***** Current system time: Fri Jan 31 23:18:52 2020
***** Estimated time to completion:  0 sec.

***** Percent complete: 95.4007 %
***** Current system time: Fri Jan 31 23:18:52 2020
***** Estimated time to completion:  0 sec.

***** Percent complete: 96.4053 %
***** Current system time: Fri Jan 31 23:18:52 2020
***** Estimated time to completion:  0 sec.

***** Percent complete: 97.4098 %
***** Current system time: Fri Jan 31 23:18:53 2020
***** Estimated time to completion:  0 sec.

***** Percent complete: 98.4144 %
***** Current system time: Fri Jan 31 23:18:53 2020
***** Estimated time to completion:  0 sec.

***** Percent complete: 99.4189 %
***** Current system time: Fri Jan 31 23:18:53 2020
***** Estimated time to completion:  0 sec.

***** Problem read in and set up time: 0.0424161 seconds
 ***** DCOP time: 0.211535 seconds.  Breakdown follows:
	Number Successful Steps Taken:		1
	Number Failed Steps Attempted:		0
	Number Jacobians Evaluated:		696
	Number Iteration Matrix Factorizations:	0
	Number Linear Solves:			696
	Number Failed Linear Solves:		0
	Number Residual Evaluations:		742
	Number Nonlinear Convergence Failures:	0
	Total Residual Load Time:		0.0913854 seconds
	Total Jacobian Load Time:		0.0122862 seconds
	Total Linear Solution Time:		0.0406125 seconds

 ***** Transient Stepping time: 5.24433 seconds.  Breakdown follows:
	Number Successful Steps Taken:		14641
	Number Failed Steps Attempted:		0
	Number Jacobians Evaluated:		14708
	Number Iteration Matrix Factorizations:	0
	Number Linear Solves:			14708
	Number Failed Linear Solves:		0
	Number Residual Evaluations:		29349
	Number Nonlinear Convergence Failures:	0
	Total Residual Load Time:		3.51655 seconds
	Total Jacobian Load Time:		0.387187 seconds
	Total Linear Solution Time:		0.863741 seconds


***** Solution Summary *****
	Number Successful Steps Taken:		14642
	Number Failed Steps Attempted:		0
	Number Jacobians Evaluated:		15404
	Number Iteration Matrix Factorizations:	0
	Number Linear Solves:			15404
	Number Failed Linear Solves:		0
	Number Residual Evaluations:		30091
	Number Nonlinear Convergence Failures:	0
	Total Residual Load Time:		3.60793 seconds
	Total Jacobian Load Time:		0.399473 seconds
	Total Linear Solution Time:		0.904354 seconds


 ***** Measure Functions ***** 

RISE_DELAY = 1.434601e-10 with trig time= 1.570282e-10 and targ time= 3.004883e-10
Measure Start Time= 0.000000e+00	Measure End Time= 1.453370e-09

FALL_DELAY = 1.405834e-10 with trig time= 8.837162e-10 and targ time= 1.024300e-09
Measure Start Time= 0.000000e+00	Measure End Time= 1.453370e-09

RISE_SLEW = 2.014770e-10 with trig time= 2.287323e-10 and targ time= 4.302093e-10
Measure Start Time= 0.000000e+00	Measure End Time= 1.453370e-09

FALL_SLEW = 1.561372e-10 with trig time= 9.647175e-10 and targ time= 1.120855e-09
Measure Start Time= 0.000000e+00	Measure End Time= 1.453370e-09


***** Total Simulation Solvers Run Time: 5.45643 seconds
***** Total Elapsed Run Time:            5.49883 seconds
*****
***** End of Xyce(TM) Simulation
*****

Timing summary of 1 processor
                 Stats                   Count       CPU Time              Wall Time
---------------------------------------- ----- --------------------- ---------------------
Xyce                                         1        5.399 (100.0%)        5.500 (100.0%)
  Analysis                                   1        5.363 (99.33%)        5.456 (99.20%)
    Transient                                1        5.363 (99.33%)        5.456 (99.20%)
      Nonlinear Solve                    14642        5.099 (94.44%)        5.166 (93.93%)
        Residual                         30091        3.609 (66.85%)        3.638 (66.14%)
        Jacobian                         15404        0.405 ( 7.50%)        0.413 ( 7.51%)
        Linear Solve                     15404        0.908 (16.81%)        0.917 (16.67%)
      Successful DCOP Steps                  1        0.000 (<0.01%)        0.000 (<0.01%)
      Successful Step                    14641        0.169 ( 3.14%)        0.176 ( 3.20%)
  Netlist Import                             1        0.032 ( 0.60%)        0.038 ( 0.69%)
    Parse Context                            1        0.014 ( 0.27%)        0.019 ( 0.34%)
    Distribute Devices                       1        0.015 ( 0.27%)        0.016 ( 0.29%)
    Verify Devices                           1        0.000 (<0.01%)        0.000 (<0.01%)
    Instantiate                              1        0.002 ( 0.04%)        0.002 ( 0.04%)
  Late Initialization                        1        0.002 ( 0.04%)        0.003 ( 0.05%)
    Global Indices                           1        0.001 ( 0.02%)        0.001 ( 0.02%)
  Setup Matrix Structure                     1        0.001 ( 0.01%)        0.001 ( 0.02%)

