
*****
***** Welcome to the Xyce(TM) Parallel Electronic Simulator
*****
***** This is version Xyce Release 6.12-opensource
***** Date: Fri Jan 31 23:17:27 PST 2020


***** Executing netlist spice_decks.tau2020_testsuite0131/net_2.sp

***** Reading and parsing netlist...
Netlist warning: No print specified
Netlist warning in file
 ../../ASAP7_PDKandLIB_v1p6/asap7PDK_r1p6/models/hspice/7nm_TT.pm.modified at
 or near line 68
 No model parameter VERSION found for model NMOS_RVT of type NMOS, parameter
 ignored.
Netlist warning in file
 ../../ASAP7_PDKandLIB_v1p6/asap7PDK_r1p6/models/hspice/7nm_TT.pm.modified at
 or near line 68
 Device model NMOS_RVT: ADMSbsimcmg: Parameter EOTACC value 1e-10 out of range
 [ 0.1*1.0e-9,  (+inf) [
Netlist warning in file
 ../../ASAP7_PDKandLIB_v1p6/asap7PDK_r1p6/models/hspice/7nm_TT.pm.modified at
 or near line 324
 No model parameter VERSION found for model PMOS_RVT of type PMOS, parameter
 ignored.
***** Setting up topology...

Netlist warning: Voltage Node (XI5:N_A) connected to only 1 device Terminal
Netlist warning: Voltage Node (XI5:N_NOXREF_7_1) does not have a DC path to
 ground
Netlist warning: Voltage Node (XI5:N_NOXREF_9_1) does not have a DC path to
 ground
Netlist warning: Voltage Node (XI5:N_NOXREF_6_1) does not have a DC path to
 ground
Netlist warning: Voltage Node (XI6:N_NOXREF_7_1) does not have a DC path to
 ground
Netlist warning: Voltage Node (XI5:N_A) does not have a DC path to ground
Netlist warning: Voltage Node (XI6:N_NOXREF_6_1) does not have a DC path to
 ground
Netlist warning: Voltage Node (XI6:N_NOXREF_9_1) does not have a DC path to
 ground
Netlist warning: Voltage Node (XI5:N_NOXREF_8_1) does not have a DC path to
 ground
Netlist warning: Voltage Node (XI6:N_NOXREF_8_1) does not have a DC path to
 ground
***** Device Count Summary ...
       C level 1 (Capacitor)                  281
       m level 107 (BSIM-CMG FINFET v107.0.0)  60
       R level 1 (Resistor)                   455
       V level 1 (Independent Voltage Source)   3
       ------------------------------------------
       Total Devices                          799
***** Setting up matrix structure...
***** Number of Unknowns = 576
***** Initializing...

***** Beginning DC Operating Point Calculation...

***** Beginning Transient Calculation...

***** Percent complete: 1.00302 %
***** Current system time: Fri Jan 31 23:17:27 2020
***** Estimated time to completion: 43 sec.

***** Percent complete: 2.00604 %
***** Current system time: Fri Jan 31 23:17:28 2020
***** Estimated time to completion: 31 sec.

***** Percent complete: 3.00906 %
***** Current system time: Fri Jan 31 23:17:28 2020
***** Estimated time to completion: 27 sec.

***** Percent complete: 4.01208 %
***** Current system time: Fri Jan 31 23:17:28 2020
***** Estimated time to completion: 25 sec.

***** Percent complete: 5.0151 %
***** Current system time: Fri Jan 31 23:17:28 2020
***** Estimated time to completion: 23 sec.

***** Percent complete: 6.01812 %
***** Current system time: Fri Jan 31 23:17:28 2020
***** Estimated time to completion: 22 sec.

***** Percent complete: 7.02113 %
***** Current system time: Fri Jan 31 23:17:29 2020
***** Estimated time to completion: 22 sec.

***** Percent complete: 8.02415 %
***** Current system time: Fri Jan 31 23:17:29 2020
***** Estimated time to completion: 21 sec.

***** Percent complete: 9.02717 %
***** Current system time: Fri Jan 31 23:17:29 2020
***** Estimated time to completion: 20 sec.

***** Percent complete: 10.0302 %
***** Current system time: Fri Jan 31 23:17:29 2020
***** Estimated time to completion: 20 sec.

***** Percent complete: 11.0332 %
***** Current system time: Fri Jan 31 23:17:29 2020
***** Estimated time to completion: 20 sec.

***** Percent complete: 12.0362 %
***** Current system time: Fri Jan 31 23:17:30 2020
***** Estimated time to completion: 19 sec.

***** Percent complete: 13.0394 %
***** Current system time: Fri Jan 31 23:17:30 2020
***** Estimated time to completion: 19 sec.

***** Percent complete: 14.0411 %
***** Current system time: Fri Jan 31 23:17:30 2020
***** Estimated time to completion: 19 sec.

***** Percent complete: 15.0453 %
***** Current system time: Fri Jan 31 23:17:30 2020
***** Estimated time to completion: 19 sec.

***** Percent complete: 16.0494 %
***** Current system time: Fri Jan 31 23:17:30 2020
***** Estimated time to completion: 18 sec.

***** Percent complete: 17.0537 %
***** Current system time: Fri Jan 31 23:17:31 2020
***** Estimated time to completion: 18 sec.

***** Percent complete: 18.0561 %
***** Current system time: Fri Jan 31 23:17:31 2020
***** Estimated time to completion: 18 sec.

***** Percent complete: 19.0611 %
***** Current system time: Fri Jan 31 23:17:31 2020
***** Estimated time to completion: 18 sec.

***** Percent complete: 20.0645 %
***** Current system time: Fri Jan 31 23:17:31 2020
***** Estimated time to completion: 17 sec.

***** Percent complete: 21.0675 %
***** Current system time: Fri Jan 31 23:17:32 2020
***** Estimated time to completion: 17 sec.

***** Percent complete: 22.0721 %
***** Current system time: Fri Jan 31 23:17:32 2020
***** Estimated time to completion: 17 sec.

***** Percent complete: 23.0746 %
***** Current system time: Fri Jan 31 23:17:32 2020
***** Estimated time to completion: 16 sec.

***** Percent complete: 24.0758 %
***** Current system time: Fri Jan 31 23:17:32 2020
***** Estimated time to completion: 16 sec.

***** Percent complete: 25.0799 %
***** Current system time: Fri Jan 31 23:17:32 2020
***** Estimated time to completion: 16 sec.

***** Percent complete: 26.0829 %
***** Current system time: Fri Jan 31 23:17:33 2020
***** Estimated time to completion: 16 sec.

***** Percent complete: 27.0859 %
***** Current system time: Fri Jan 31 23:17:33 2020
***** Estimated time to completion: 15 sec.

***** Percent complete: 28.0889 %
***** Current system time: Fri Jan 31 23:17:33 2020
***** Estimated time to completion: 15 sec.

***** Percent complete: 29.0919 %
***** Current system time: Fri Jan 31 23:17:33 2020
***** Estimated time to completion: 15 sec.

***** Percent complete: 30.095 %
***** Current system time: Fri Jan 31 23:17:33 2020
***** Estimated time to completion: 15 sec.

***** Percent complete: 31.098 %
***** Current system time: Fri Jan 31 23:17:34 2020
***** Estimated time to completion: 14 sec.

***** Percent complete: 32.101 %
***** Current system time: Fri Jan 31 23:17:34 2020
***** Estimated time to completion: 14 sec.

***** Percent complete: 33.104 %
***** Current system time: Fri Jan 31 23:17:34 2020
***** Estimated time to completion: 14 sec.

***** Percent complete: 34.107 %
***** Current system time: Fri Jan 31 23:17:34 2020
***** Estimated time to completion: 14 sec.

***** Percent complete: 35.1101 %
***** Current system time: Fri Jan 31 23:17:34 2020
***** Estimated time to completion: 14 sec.

***** Percent complete: 36.1131 %
***** Current system time: Fri Jan 31 23:17:35 2020
***** Estimated time to completion: 13 sec.

***** Percent complete: 37.1161 %
***** Current system time: Fri Jan 31 23:17:35 2020
***** Estimated time to completion: 13 sec.

***** Percent complete: 38.1191 %
***** Current system time: Fri Jan 31 23:17:35 2020
***** Estimated time to completion: 13 sec.

***** Percent complete: 39.1221 %
***** Current system time: Fri Jan 31 23:17:35 2020
***** Estimated time to completion: 13 sec.

***** Percent complete: 40.1251 %
***** Current system time: Fri Jan 31 23:17:35 2020
***** Estimated time to completion: 12 sec.

***** Percent complete: 41.1282 %
***** Current system time: Fri Jan 31 23:17:36 2020
***** Estimated time to completion: 12 sec.

***** Percent complete: 42.1312 %
***** Current system time: Fri Jan 31 23:17:36 2020
***** Estimated time to completion: 12 sec.

***** Percent complete: 43.1342 %
***** Current system time: Fri Jan 31 23:17:36 2020
***** Estimated time to completion: 12 sec.

***** Percent complete: 44.1372 %
***** Current system time: Fri Jan 31 23:17:36 2020
***** Estimated time to completion: 11 sec.

***** Percent complete: 45.1402 %
***** Current system time: Fri Jan 31 23:17:37 2020
***** Estimated time to completion: 11 sec.

***** Percent complete: 46.1433 %
***** Current system time: Fri Jan 31 23:17:37 2020
***** Estimated time to completion: 11 sec.

***** Percent complete: 47.1463 %
***** Current system time: Fri Jan 31 23:17:37 2020
***** Estimated time to completion: 11 sec.

***** Percent complete: 48.1493 %
***** Current system time: Fri Jan 31 23:17:37 2020
***** Estimated time to completion: 11 sec.

***** Percent complete: 49.1523 %
***** Current system time: Fri Jan 31 23:17:37 2020
***** Estimated time to completion: 10 sec.

***** Percent complete: 50.1553 %
***** Current system time: Fri Jan 31 23:17:38 2020
***** Estimated time to completion: 10 sec.

***** Percent complete: 51.1584 %
***** Current system time: Fri Jan 31 23:17:38 2020
***** Estimated time to completion: 10 sec.

***** Percent complete: 52.1614 %
***** Current system time: Fri Jan 31 23:17:38 2020
***** Estimated time to completion: 10 sec.

***** Percent complete: 53.1644 %
***** Current system time: Fri Jan 31 23:17:38 2020
***** Estimated time to completion:  9 sec.

***** Percent complete: 54.1674 %
***** Current system time: Fri Jan 31 23:17:38 2020
***** Estimated time to completion:  9 sec.

***** Percent complete: 55.1704 %
***** Current system time: Fri Jan 31 23:17:39 2020
***** Estimated time to completion:  9 sec.

***** Percent complete: 56.1735 %
***** Current system time: Fri Jan 31 23:17:39 2020
***** Estimated time to completion:  9 sec.

***** Percent complete: 57.1765 %
***** Current system time: Fri Jan 31 23:17:39 2020
***** Estimated time to completion:  9 sec.

***** Percent complete: 58.1795 %
***** Current system time: Fri Jan 31 23:17:39 2020
***** Estimated time to completion:  8 sec.

***** Percent complete: 59.1825 %
***** Current system time: Fri Jan 31 23:17:39 2020
***** Estimated time to completion:  8 sec.

***** Percent complete: 60.1855 %
***** Current system time: Fri Jan 31 23:17:40 2020
***** Estimated time to completion:  8 sec.

***** Percent complete: 61.1886 %
***** Current system time: Fri Jan 31 23:17:40 2020
***** Estimated time to completion:  8 sec.

***** Percent complete: 62.1916 %
***** Current system time: Fri Jan 31 23:17:40 2020
***** Estimated time to completion:  8 sec.

***** Percent complete: 63.1958 %
***** Current system time: Fri Jan 31 23:17:40 2020
***** Estimated time to completion:  7 sec.

***** Percent complete: 64.1988 %
***** Current system time: Fri Jan 31 23:17:41 2020
***** Estimated time to completion:  7 sec.

***** Percent complete: 65.2034 %
***** Current system time: Fri Jan 31 23:17:41 2020
***** Estimated time to completion:  7 sec.

***** Percent complete: 66.2074 %
***** Current system time: Fri Jan 31 23:17:41 2020
***** Estimated time to completion:  7 sec.

***** Percent complete: 67.2115 %
***** Current system time: Fri Jan 31 23:17:41 2020
***** Estimated time to completion:  6 sec.

***** Percent complete: 68.214 %
***** Current system time: Fri Jan 31 23:17:41 2020
***** Estimated time to completion:  6 sec.

***** Percent complete: 69.219 %
***** Current system time: Fri Jan 31 23:17:42 2020
***** Estimated time to completion:  6 sec.

***** Percent complete: 70.2225 %
***** Current system time: Fri Jan 31 23:17:42 2020
***** Estimated time to completion:  6 sec.

***** Percent complete: 71.2271 %
***** Current system time: Fri Jan 31 23:17:42 2020
***** Estimated time to completion:  6 sec.

***** Percent complete: 72.2301 %
***** Current system time: Fri Jan 31 23:17:42 2020
***** Estimated time to completion:  5 sec.

***** Percent complete: 73.2326 %
***** Current system time: Fri Jan 31 23:17:42 2020
***** Estimated time to completion:  5 sec.

***** Percent complete: 74.2336 %
***** Current system time: Fri Jan 31 23:17:43 2020
***** Estimated time to completion:  5 sec.

***** Percent complete: 75.2376 %
***** Current system time: Fri Jan 31 23:17:43 2020
***** Estimated time to completion:  5 sec.

***** Percent complete: 76.2407 %
***** Current system time: Fri Jan 31 23:17:43 2020
***** Estimated time to completion:  5 sec.

***** Percent complete: 77.2437 %
***** Current system time: Fri Jan 31 23:17:43 2020
***** Estimated time to completion:  4 sec.

***** Percent complete: 78.2467 %
***** Current system time: Fri Jan 31 23:17:43 2020
***** Estimated time to completion:  4 sec.

***** Percent complete: 79.2497 %
***** Current system time: Fri Jan 31 23:17:44 2020
***** Estimated time to completion:  4 sec.

***** Percent complete: 80.2527 %
***** Current system time: Fri Jan 31 23:17:44 2020
***** Estimated time to completion:  4 sec.

***** Percent complete: 81.2558 %
***** Current system time: Fri Jan 31 23:17:44 2020
***** Estimated time to completion:  3 sec.

***** Percent complete: 82.2588 %
***** Current system time: Fri Jan 31 23:17:44 2020
***** Estimated time to completion:  3 sec.

***** Percent complete: 83.2618 %
***** Current system time: Fri Jan 31 23:17:45 2020
***** Estimated time to completion:  3 sec.

***** Percent complete: 84.2648 %
***** Current system time: Fri Jan 31 23:17:45 2020
***** Estimated time to completion:  3 sec.

***** Percent complete: 85.2678 %
***** Current system time: Fri Jan 31 23:17:45 2020
***** Estimated time to completion:  3 sec.

***** Percent complete: 86.2709 %
***** Current system time: Fri Jan 31 23:17:45 2020
***** Estimated time to completion:  2 sec.

***** Percent complete: 87.2739 %
***** Current system time: Fri Jan 31 23:17:45 2020
***** Estimated time to completion:  2 sec.

***** Percent complete: 88.2769 %
***** Current system time: Fri Jan 31 23:17:46 2020
***** Estimated time to completion:  2 sec.

***** Percent complete: 89.2799 %
***** Current system time: Fri Jan 31 23:17:46 2020
***** Estimated time to completion:  2 sec.

***** Percent complete: 90.2829 %
***** Current system time: Fri Jan 31 23:17:46 2020
***** Estimated time to completion:  2 sec.

***** Percent complete: 91.286 %
***** Current system time: Fri Jan 31 23:17:46 2020
***** Estimated time to completion:  1 sec.

***** Percent complete: 92.289 %
***** Current system time: Fri Jan 31 23:17:46 2020
***** Estimated time to completion:  1 sec.

***** Percent complete: 93.292 %
***** Current system time: Fri Jan 31 23:17:47 2020
***** Estimated time to completion:  1 sec.

***** Percent complete: 94.295 %
***** Current system time: Fri Jan 31 23:17:47 2020
***** Estimated time to completion:  1 sec.

***** Percent complete: 95.298 %
***** Current system time: Fri Jan 31 23:17:47 2020
***** Estimated time to completion:  0 sec.

***** Percent complete: 96.301 %
***** Current system time: Fri Jan 31 23:17:47 2020
***** Estimated time to completion:  0 sec.

***** Percent complete: 97.3041 %
***** Current system time: Fri Jan 31 23:17:47 2020
***** Estimated time to completion:  0 sec.

***** Percent complete: 98.3071 %
***** Current system time: Fri Jan 31 23:17:48 2020
***** Estimated time to completion:  0 sec.

***** Percent complete: 99.3101 %
***** Current system time: Fri Jan 31 23:17:48 2020
***** Estimated time to completion:  0 sec.

***** Problem read in and set up time: 0.0581541 seconds
 ***** DCOP time: 0.238224 seconds.  Breakdown follows:
	Number Successful Steps Taken:		1
	Number Failed Steps Attempted:		0
	Number Jacobians Evaluated:		293
	Number Iteration Matrix Factorizations:	0
	Number Linear Solves:			293
	Number Failed Linear Solves:		0
	Number Residual Evaluations:		319
	Number Nonlinear Convergence Failures:	0
	Total Residual Load Time:		0.132514 seconds
	Total Jacobian Load Time:		0.0128837 seconds
	Total Linear Solution Time:		0.0459158 seconds

 ***** Transient Stepping time: 20.9344 seconds.  Breakdown follows:
	Number Successful Steps Taken:		19741
	Number Failed Steps Attempted:		0
	Number Jacobians Evaluated:		19863
	Number Iteration Matrix Factorizations:	0
	Number Linear Solves:			19863
	Number Failed Linear Solves:		0
	Number Residual Evaluations:		39604
	Number Nonlinear Convergence Failures:	0
	Total Residual Load Time:		15.7354 seconds
	Total Jacobian Load Time:		1.28248 seconds
	Total Linear Solution Time:		3.0122 seconds


***** Solution Summary *****
	Number Successful Steps Taken:		19742
	Number Failed Steps Attempted:		0
	Number Jacobians Evaluated:		20156
	Number Iteration Matrix Factorizations:	0
	Number Linear Solves:			20156
	Number Failed Linear Solves:		0
	Number Residual Evaluations:		39923
	Number Nonlinear Convergence Failures:	0
	Total Residual Load Time:		15.8679 seconds
	Total Jacobian Load Time:		1.29536 seconds
	Total Linear Solution Time:		3.05812 seconds


 ***** Measure Functions ***** 

RISE_DELAY = 7.688162e-11 with trig time= 3.339110e-10 and targ time= 4.107926e-10
Measure Start Time= 0.000000e+00	Measure End Time= 1.964070e-09

FALL_DELAY = 7.895826e-11 with trig time= 1.315944e-09 and targ time= 1.394902e-09
Measure Start Time= 0.000000e+00	Measure End Time= 1.964070e-09

RISE_SLEW = 1.241502e-10 with trig time= 3.798979e-10 and targ time= 5.040481e-10
Measure Start Time= 0.000000e+00	Measure End Time= 1.964070e-09

FALL_SLEW = 8.805811e-11 with trig time= 1.368460e-09 and targ time= 1.456518e-09
Measure Start Time= 0.000000e+00	Measure End Time= 1.964070e-09


***** Total Simulation Solvers Run Time: 21.1733 seconds
***** Total Elapsed Run Time:            21.2315 seconds
*****
***** End of Xyce(TM) Simulation
*****

Timing summary of 1 processor
                 Stats                   Count       CPU Time              Wall Time
---------------------------------------- ----- --------------------- ---------------------
Xyce                                         1       21.072 (100.0%)       21.232 (100.0%)
  Analysis                                   1       21.019 (99.75%)       21.173 (99.72%)
    Transient                                1       21.019 (99.75%)       21.173 (99.72%)
      Nonlinear Solve                    19742       20.483 (97.20%)       20.604 (97.04%)
        Residual                         39923       15.854 (75.24%)       15.908 (74.92%)
        Jacobian                         20156        1.300 ( 6.17%)        1.315 ( 6.19%)
        Linear Solve                     20156        3.051 (14.48%)        3.077 (14.49%)
      Successful DCOP Steps                  1        0.000 (<0.01%)        0.000 (<0.01%)
      Successful Step                    19741        0.339 ( 1.61%)        0.349 ( 1.65%)
  Netlist Import                             1        0.046 ( 0.22%)        0.051 ( 0.24%)
    Parse Context                            1        0.012 ( 0.06%)        0.014 ( 0.07%)
    Distribute Devices                       1        0.029 ( 0.14%)        0.030 ( 0.14%)
    Verify Devices                           1        0.000 (<0.01%)        0.000 (<0.01%)
    Instantiate                              1        0.005 ( 0.02%)        0.005 ( 0.02%)
  Late Initialization                        1        0.005 ( 0.02%)        0.005 ( 0.02%)
    Global Indices                           1        0.002 ( 0.01%)        0.002 ( 0.01%)
  Setup Matrix Structure                     1        0.001 (<0.01%)        0.001 (<0.01%)

