
*****
***** Welcome to the Xyce(TM) Parallel Electronic Simulator
*****
***** This is version Xyce Release 6.12-opensource
***** Date: Fri Jan 31 21:59:34 PST 2020


***** Executing netlist spice_decks.tau2020_testsuite0131/net_3.sp

***** Reading and parsing netlist...
Netlist warning: No print specified
Netlist warning in file
 ../../ASAP7_PDKandLIB_v1p6/asap7PDK_r1p6/models/hspice/7nm_TT.pm.modified at
 or near line 68
 No model parameter VERSION found for model NMOS_RVT of type NMOS, parameter
 ignored.
Netlist warning in file
 ../../ASAP7_PDKandLIB_v1p6/asap7PDK_r1p6/models/hspice/7nm_TT.pm.modified at
 or near line 68
 Device model NMOS_RVT: ADMSbsimcmg: Parameter EOTACC value 1e-10 out of range
 [ 0.1*1.0e-9,  (+inf) [
Netlist warning in file
 ../../ASAP7_PDKandLIB_v1p6/asap7PDK_r1p6/models/hspice/7nm_TT.pm.modified at
 or near line 324
 No model parameter VERSION found for model PMOS_RVT of type PMOS, parameter
 ignored.
***** Setting up topology...

Netlist warning: Voltage Node (XI7:N_NOXREF_14_1) does not have a DC path to
 ground
Netlist warning: Voltage Node (XI7:N_NOXREF_12_1) does not have a DC path to
 ground
Netlist warning: Voltage Node (XI7:N_NOXREF_13_1) does not have a DC path to
 ground
Netlist warning: Voltage Node (XI8:N_NOXREF_7_1) does not have a DC path to
 ground
Netlist warning: Voltage Node (XI8:N_NOXREF_6_1) does not have a DC path to
 ground
Netlist warning: Voltage Node (XI7:N_NOXREF_15_1) does not have a DC path to
 ground
Netlist warning: Voltage Node (XI8:N_NOXREF_8_1) does not have a DC path to
 ground
Netlist warning: Voltage Node (XI8:N_NOXREF_9_1) does not have a DC path to
 ground
Netlist warning: Voltage Node (XI8:N_A) does not have a DC path to ground
***** Device Count Summary ...
       C level 1 (Capacitor)                  206
       m level 107 (BSIM-CMG FINFET v107.0.0)  30
       R level 1 (Resistor)                   265
       V level 1 (Independent Voltage Source)   3
       ------------------------------------------
       Total Devices                          504
***** Setting up matrix structure...
***** Number of Unknowns = 337
***** Initializing...

***** Beginning DC Operating Point Calculation...

***** Beginning Transient Calculation...

***** Percent complete: 1.00029 %
***** Current system time: Fri Jan 31 21:59:35 2020
***** Estimated time to completion: 34 sec.

***** Percent complete: 2.00058 %
***** Current system time: Fri Jan 31 21:59:35 2020
***** Estimated time to completion: 22 sec.

***** Percent complete: 3.00088 %
***** Current system time: Fri Jan 31 21:59:35 2020
***** Estimated time to completion: 19 sec.

***** Percent complete: 4.00117 %
***** Current system time: Fri Jan 31 21:59:35 2020
***** Estimated time to completion: 17 sec.

***** Percent complete: 5.00146 %
***** Current system time: Fri Jan 31 21:59:35 2020
***** Estimated time to completion: 16 sec.

***** Percent complete: 6.00175 %
***** Current system time: Fri Jan 31 21:59:35 2020
***** Estimated time to completion: 15 sec.

***** Percent complete: 7.00204 %
***** Current system time: Fri Jan 31 21:59:36 2020
***** Estimated time to completion: 14 sec.

***** Percent complete: 8.00233 %
***** Current system time: Fri Jan 31 21:59:36 2020
***** Estimated time to completion: 14 sec.

***** Percent complete: 9.00263 %
***** Current system time: Fri Jan 31 21:59:36 2020
***** Estimated time to completion: 13 sec.

***** Percent complete: 10.0029 %
***** Current system time: Fri Jan 31 21:59:36 2020
***** Estimated time to completion: 13 sec.

***** Percent complete: 11.0032 %
***** Current system time: Fri Jan 31 21:59:36 2020
***** Estimated time to completion: 12 sec.

***** Percent complete: 12.0035 %
***** Current system time: Fri Jan 31 21:59:36 2020
***** Estimated time to completion: 12 sec.

***** Percent complete: 13.0038 %
***** Current system time: Fri Jan 31 21:59:36 2020
***** Estimated time to completion: 12 sec.

***** Percent complete: 14.0062 %
***** Current system time: Fri Jan 31 21:59:36 2020
***** Estimated time to completion: 12 sec.

***** Percent complete: 15.0107 %
***** Current system time: Fri Jan 31 21:59:37 2020
***** Estimated time to completion: 11 sec.

***** Percent complete: 16.0153 %
***** Current system time: Fri Jan 31 21:59:37 2020
***** Estimated time to completion: 11 sec.

***** Percent complete: 17.017 %
***** Current system time: Fri Jan 31 21:59:37 2020
***** Estimated time to completion: 11 sec.

***** Percent complete: 18.0177 %
***** Current system time: Fri Jan 31 21:59:37 2020
***** Estimated time to completion: 11 sec.

***** Percent complete: 19.0215 %
***** Current system time: Fri Jan 31 21:59:37 2020
***** Estimated time to completion: 11 sec.

***** Percent complete: 20.0216 %
***** Current system time: Fri Jan 31 21:59:37 2020
***** Estimated time to completion: 11 sec.

***** Percent complete: 21.0216 %
***** Current system time: Fri Jan 31 21:59:37 2020
***** Estimated time to completion: 10 sec.

***** Percent complete: 22.0252 %
***** Current system time: Fri Jan 31 21:59:38 2020
***** Estimated time to completion: 10 sec.

***** Percent complete: 23.0255 %
***** Current system time: Fri Jan 31 21:59:38 2020
***** Estimated time to completion: 10 sec.

***** Percent complete: 24.028 %
***** Current system time: Fri Jan 31 21:59:38 2020
***** Estimated time to completion: 10 sec.

***** Percent complete: 25.0286 %
***** Current system time: Fri Jan 31 21:59:38 2020
***** Estimated time to completion: 10 sec.

***** Percent complete: 26.0302 %
***** Current system time: Fri Jan 31 21:59:38 2020
***** Estimated time to completion: 10 sec.

***** Percent complete: 27.0327 %
***** Current system time: Fri Jan 31 21:59:38 2020
***** Estimated time to completion:  9 sec.

***** Percent complete: 28.033 %
***** Current system time: Fri Jan 31 21:59:38 2020
***** Estimated time to completion:  9 sec.

***** Percent complete: 29.0333 %
***** Current system time: Fri Jan 31 21:59:38 2020
***** Estimated time to completion:  9 sec.

***** Percent complete: 30.0336 %
***** Current system time: Fri Jan 31 21:59:39 2020
***** Estimated time to completion:  9 sec.

***** Percent complete: 31.0339 %
***** Current system time: Fri Jan 31 21:59:39 2020
***** Estimated time to completion:  9 sec.

***** Percent complete: 32.0342 %
***** Current system time: Fri Jan 31 21:59:39 2020
***** Estimated time to completion:  9 sec.

***** Percent complete: 33.0344 %
***** Current system time: Fri Jan 31 21:59:39 2020
***** Estimated time to completion:  8 sec.

***** Percent complete: 34.0347 %
***** Current system time: Fri Jan 31 21:59:39 2020
***** Estimated time to completion:  8 sec.

***** Percent complete: 35.035 %
***** Current system time: Fri Jan 31 21:59:39 2020
***** Estimated time to completion:  8 sec.

***** Percent complete: 36.0353 %
***** Current system time: Fri Jan 31 21:59:39 2020
***** Estimated time to completion:  8 sec.

***** Percent complete: 37.0356 %
***** Current system time: Fri Jan 31 21:59:39 2020
***** Estimated time to completion:  8 sec.

***** Percent complete: 38.0359 %
***** Current system time: Fri Jan 31 21:59:40 2020
***** Estimated time to completion:  8 sec.

***** Percent complete: 39.0362 %
***** Current system time: Fri Jan 31 21:59:40 2020
***** Estimated time to completion:  8 sec.

***** Percent complete: 40.0365 %
***** Current system time: Fri Jan 31 21:59:40 2020
***** Estimated time to completion:  7 sec.

***** Percent complete: 41.0368 %
***** Current system time: Fri Jan 31 21:59:40 2020
***** Estimated time to completion:  7 sec.

***** Percent complete: 42.0371 %
***** Current system time: Fri Jan 31 21:59:40 2020
***** Estimated time to completion:  7 sec.

***** Percent complete: 43.0374 %
***** Current system time: Fri Jan 31 21:59:40 2020
***** Estimated time to completion:  7 sec.

***** Percent complete: 44.0377 %
***** Current system time: Fri Jan 31 21:59:40 2020
***** Estimated time to completion:  7 sec.

***** Percent complete: 45.038 %
***** Current system time: Fri Jan 31 21:59:40 2020
***** Estimated time to completion:  7 sec.

***** Percent complete: 46.0382 %
***** Current system time: Fri Jan 31 21:59:41 2020
***** Estimated time to completion:  7 sec.

***** Percent complete: 47.0385 %
***** Current system time: Fri Jan 31 21:59:41 2020
***** Estimated time to completion:  7 sec.

***** Percent complete: 48.0388 %
***** Current system time: Fri Jan 31 21:59:41 2020
***** Estimated time to completion:  6 sec.

***** Percent complete: 49.0391 %
***** Current system time: Fri Jan 31 21:59:41 2020
***** Estimated time to completion:  6 sec.

***** Percent complete: 50.0394 %
***** Current system time: Fri Jan 31 21:59:41 2020
***** Estimated time to completion:  6 sec.

***** Percent complete: 51.0397 %
***** Current system time: Fri Jan 31 21:59:41 2020
***** Estimated time to completion:  6 sec.

***** Percent complete: 52.04 %
***** Current system time: Fri Jan 31 21:59:41 2020
***** Estimated time to completion:  6 sec.

***** Percent complete: 53.0403 %
***** Current system time: Fri Jan 31 21:59:41 2020
***** Estimated time to completion:  6 sec.

***** Percent complete: 54.0406 %
***** Current system time: Fri Jan 31 21:59:42 2020
***** Estimated time to completion:  6 sec.

***** Percent complete: 55.0409 %
***** Current system time: Fri Jan 31 21:59:42 2020
***** Estimated time to completion:  5 sec.

***** Percent complete: 56.0412 %
***** Current system time: Fri Jan 31 21:59:42 2020
***** Estimated time to completion:  5 sec.

***** Percent complete: 57.0415 %
***** Current system time: Fri Jan 31 21:59:42 2020
***** Estimated time to completion:  5 sec.

***** Percent complete: 58.0417 %
***** Current system time: Fri Jan 31 21:59:42 2020
***** Estimated time to completion:  5 sec.

***** Percent complete: 59.042 %
***** Current system time: Fri Jan 31 21:59:42 2020
***** Estimated time to completion:  5 sec.

***** Percent complete: 60.0423 %
***** Current system time: Fri Jan 31 21:59:42 2020
***** Estimated time to completion:  5 sec.

***** Percent complete: 61.0426 %
***** Current system time: Fri Jan 31 21:59:43 2020
***** Estimated time to completion:  5 sec.

***** Percent complete: 62.0429 %
***** Current system time: Fri Jan 31 21:59:43 2020
***** Estimated time to completion:  5 sec.

***** Percent complete: 63.0432 %
***** Current system time: Fri Jan 31 21:59:43 2020
***** Estimated time to completion:  4 sec.

***** Percent complete: 64.0432 %
***** Current system time: Fri Jan 31 21:59:43 2020
***** Estimated time to completion:  4 sec.

***** Percent complete: 65.0477 %
***** Current system time: Fri Jan 31 21:59:43 2020
***** Estimated time to completion:  4 sec.

***** Percent complete: 66.0521 %
***** Current system time: Fri Jan 31 21:59:43 2020
***** Estimated time to completion:  4 sec.

***** Percent complete: 67.0543 %
***** Current system time: Fri Jan 31 21:59:43 2020
***** Estimated time to completion:  4 sec.

***** Percent complete: 68.0578 %
***** Current system time: Fri Jan 31 21:59:43 2020
***** Estimated time to completion:  4 sec.

***** Percent complete: 69.0586 %
***** Current system time: Fri Jan 31 21:59:44 2020
***** Estimated time to completion:  4 sec.

***** Percent complete: 70.0589 %
***** Current system time: Fri Jan 31 21:59:44 2020
***** Estimated time to completion:  3 sec.

***** Percent complete: 71.0633 %
***** Current system time: Fri Jan 31 21:59:44 2020
***** Estimated time to completion:  3 sec.

***** Percent complete: 72.0669 %
***** Current system time: Fri Jan 31 21:59:44 2020
***** Estimated time to completion:  3 sec.

***** Percent complete: 73.0671 %
***** Current system time: Fri Jan 31 21:59:44 2020
***** Estimated time to completion:  3 sec.

***** Percent complete: 74.0698 %
***** Current system time: Fri Jan 31 21:59:44 2020
***** Estimated time to completion:  3 sec.

***** Percent complete: 75.0705 %
***** Current system time: Fri Jan 31 21:59:44 2020
***** Estimated time to completion:  3 sec.

***** Percent complete: 76.0731 %
***** Current system time: Fri Jan 31 21:59:45 2020
***** Estimated time to completion:  3 sec.

***** Percent complete: 77.0743 %
***** Current system time: Fri Jan 31 21:59:45 2020
***** Estimated time to completion:  3 sec.

***** Percent complete: 78.0746 %
***** Current system time: Fri Jan 31 21:59:45 2020
***** Estimated time to completion:  2 sec.

***** Percent complete: 79.0749 %
***** Current system time: Fri Jan 31 21:59:45 2020
***** Estimated time to completion:  2 sec.

***** Percent complete: 80.0752 %
***** Current system time: Fri Jan 31 21:59:45 2020
***** Estimated time to completion:  2 sec.

***** Percent complete: 81.0755 %
***** Current system time: Fri Jan 31 21:59:45 2020
***** Estimated time to completion:  2 sec.

***** Percent complete: 82.0758 %
***** Current system time: Fri Jan 31 21:59:45 2020
***** Estimated time to completion:  2 sec.

***** Percent complete: 83.0761 %
***** Current system time: Fri Jan 31 21:59:45 2020
***** Estimated time to completion:  2 sec.

***** Percent complete: 84.0764 %
***** Current system time: Fri Jan 31 21:59:46 2020
***** Estimated time to completion:  2 sec.

***** Percent complete: 85.0767 %
***** Current system time: Fri Jan 31 21:59:46 2020
***** Estimated time to completion:  1 sec.

***** Percent complete: 86.077 %
***** Current system time: Fri Jan 31 21:59:46 2020
***** Estimated time to completion:  1 sec.

***** Percent complete: 87.0772 %
***** Current system time: Fri Jan 31 21:59:46 2020
***** Estimated time to completion:  1 sec.

***** Percent complete: 88.0775 %
***** Current system time: Fri Jan 31 21:59:46 2020
***** Estimated time to completion:  1 sec.

***** Percent complete: 89.0778 %
***** Current system time: Fri Jan 31 21:59:46 2020
***** Estimated time to completion:  1 sec.

***** Percent complete: 90.0781 %
***** Current system time: Fri Jan 31 21:59:46 2020
***** Estimated time to completion:  1 sec.

***** Percent complete: 91.0784 %
***** Current system time: Fri Jan 31 21:59:47 2020
***** Estimated time to completion:  1 sec.

***** Percent complete: 92.0787 %
***** Current system time: Fri Jan 31 21:59:47 2020
***** Estimated time to completion:  1 sec.

***** Percent complete: 93.079 %
***** Current system time: Fri Jan 31 21:59:47 2020
***** Estimated time to completion:  0 sec.

***** Percent complete: 94.0793 %
***** Current system time: Fri Jan 31 21:59:47 2020
***** Estimated time to completion:  0 sec.

***** Percent complete: 95.0796 %
***** Current system time: Fri Jan 31 21:59:47 2020
***** Estimated time to completion:  0 sec.

***** Percent complete: 96.0799 %
***** Current system time: Fri Jan 31 21:59:47 2020
***** Estimated time to completion:  0 sec.

***** Percent complete: 97.0802 %
***** Current system time: Fri Jan 31 21:59:47 2020
***** Estimated time to completion:  0 sec.

***** Percent complete: 98.0805 %
***** Current system time: Fri Jan 31 21:59:47 2020
***** Estimated time to completion:  0 sec.

***** Percent complete: 99.0808 %
***** Current system time: Fri Jan 31 21:59:48 2020
***** Estimated time to completion:  0 sec.

***** Problem read in and set up time: 0.0434029 seconds
 ***** DCOP time: 0.225773 seconds.  Breakdown follows:
	Number Successful Steps Taken:		1
	Number Failed Steps Attempted:		0
	Number Jacobians Evaluated:		497
	Number Iteration Matrix Factorizations:	0
	Number Linear Solves:			497
	Number Failed Linear Solves:		0
	Number Residual Evaluations:		550
	Number Nonlinear Convergence Failures:	0
	Total Residual Load Time:		0.113281 seconds
	Total Jacobian Load Time:		0.0125623 seconds
	Total Linear Solution Time:		0.0478594 seconds

 ***** Transient Stepping time: 12.9736 seconds.  Breakdown follows:
	Number Successful Steps Taken:		21699
	Number Failed Steps Attempted:		0
	Number Jacobians Evaluated:		21749
	Number Iteration Matrix Factorizations:	0
	Number Linear Solves:			21749
	Number Failed Linear Solves:		0
	Number Residual Evaluations:		43448
	Number Nonlinear Convergence Failures:	0
	Total Residual Load Time:		9.01601 seconds
	Total Jacobian Load Time:		0.936997 seconds
	Total Linear Solution Time:		2.20405 seconds


***** Solution Summary *****
	Number Successful Steps Taken:		21700
	Number Failed Steps Attempted:		0
	Number Jacobians Evaluated:		22246
	Number Iteration Matrix Factorizations:	0
	Number Linear Solves:			22246
	Number Failed Linear Solves:		0
	Number Residual Evaluations:		43998
	Number Nonlinear Convergence Failures:	0
	Total Residual Load Time:		9.12929 seconds
	Total Jacobian Load Time:		0.949559 seconds
	Total Linear Solution Time:		2.25191 seconds


 ***** Measure Functions ***** 

RISE_DELAY = 2.012956e-10 with trig time= 4.015538e-10 and targ time= 6.028494e-10
Measure Start Time= 0.000000e+00	Measure End Time= 2.159370e-09

FALL_DELAY = 2.094080e-10 with trig time= 1.481240e-09 and targ time= 1.690648e-09
Measure Start Time= 0.000000e+00	Measure End Time= 2.159370e-09

RISE_SLEW = 2.107300e-10 with trig time= 5.234202e-10 and targ time= 7.341501e-10
Measure Start Time= 0.000000e+00	Measure End Time= 2.159370e-09

FALL_SLEW = 1.668726e-10 with trig time= 1.622063e-09 and targ time= 1.788936e-09
Measure Start Time= 0.000000e+00	Measure End Time= 2.159370e-09


***** Total Simulation Solvers Run Time: 13.2 seconds
***** Total Elapsed Run Time:            13.2434 seconds
*****
***** End of Xyce(TM) Simulation
*****

Timing summary of 1 processor
                 Stats                   Count       CPU Time              Wall Time
---------------------------------------- ----- --------------------- ---------------------
Xyce                                         1       13.114 (100.0%)       13.244 (100.0%)
  Analysis                                   1       13.074 (99.69%)       13.200 (99.66%)
    Transient                                1       13.074 (99.69%)       13.200 (99.66%)
      Nonlinear Solve                    21700       12.610 (96.15%)       12.709 (95.96%)
        Residual                         43998        9.138 (69.68%)        9.176 (69.28%)
        Jacobian                         22246        0.959 ( 7.31%)        0.971 ( 7.33%)
        Linear Solve                     22246        2.249 (17.15%)        2.271 (17.15%)
      Successful DCOP Steps                  1        0.000 (<0.01%)        0.000 (<0.01%)
      Successful Step                    21699        0.295 ( 2.25%)        0.305 ( 2.30%)
  Netlist Import                             1        0.035 ( 0.27%)        0.038 ( 0.29%)
    Parse Context                            1        0.011 ( 0.09%)        0.013 ( 0.10%)
    Distribute Devices                       1        0.020 ( 0.15%)        0.021 ( 0.16%)
    Verify Devices                           1        0.000 (<0.01%)        0.000 (<0.01%)
    Instantiate                              1        0.003 ( 0.02%)        0.003 ( 0.02%)
  Late Initialization                        1        0.003 ( 0.02%)        0.003 ( 0.03%)
    Global Indices                           1        0.002 ( 0.01%)        0.002 ( 0.01%)
  Setup Matrix Structure                     1        0.001 (<0.01%)        0.001 (<0.01%)

