
*****
***** Welcome to the Xyce(TM) Parallel Electronic Simulator
*****
***** This is version Xyce Release 6.12-opensource
***** Date: Fri Jan 31 23:18:56 PST 2020


***** Executing netlist spice_decks.tau2020_testsuite0131/net_9.sp

***** Reading and parsing netlist...
Netlist warning: No print specified
Netlist warning in file
 ../../ASAP7_PDKandLIB_v1p6/asap7PDK_r1p6/models/hspice/7nm_TT.pm.modified at
 or near line 68
 No model parameter VERSION found for model NMOS_RVT of type NMOS, parameter
 ignored.
Netlist warning in file
 ../../ASAP7_PDKandLIB_v1p6/asap7PDK_r1p6/models/hspice/7nm_TT.pm.modified at
 or near line 68
 Device model NMOS_RVT: ADMSbsimcmg: Parameter EOTACC value 1e-10 out of range
 [ 0.1*1.0e-9,  (+inf) [
Netlist warning in file
 ../../ASAP7_PDKandLIB_v1p6/asap7PDK_r1p6/models/hspice/7nm_TT.pm.modified at
 or near line 324
 No model parameter VERSION found for model PMOS_RVT of type PMOS, parameter
 ignored.
***** Setting up topology...

Netlist warning: Voltage Node (XI19:N_NOXREF_6_1) does not have a DC path to
 ground
Netlist warning: Voltage Node (XI19:N_NOXREF_8_1) does not have a DC path to
 ground
Netlist warning: Voltage Node (XI19:N_NOXREF_7_1) does not have a DC path to
 ground
Netlist warning: Voltage Node (XI20:N_NOXREF_6_1) does not have a DC path to
 ground
Netlist warning: Voltage Node (XI20:N_NOXREF_8_1) does not have a DC path to
 ground
Netlist warning: Voltage Node (XI20:N_NOXREF_7_1) does not have a DC path to
 ground
Netlist warning: Voltage Node (XI19:N_NOXREF_5_1) does not have a DC path to
 ground
Netlist warning: Voltage Node (XI20:N_NOXREF_9_1) does not have a DC path to
 ground
***** Device Count Summary ...
       C level 1 (Capacitor)                  172
       m level 107 (BSIM-CMG FINFET v107.0.0)  24
       R level 1 (Resistor)                   192
       V level 1 (Independent Voltage Source)   3
       ------------------------------------------
       Total Devices                          391
***** Setting up matrix structure...
***** Number of Unknowns = 255
***** Initializing...

***** Beginning DC Operating Point Calculation...

***** Beginning Transient Calculation...

***** Percent complete: 1.00453 %
***** Current system time: Fri Jan 31 23:18:56 2020
***** Estimated time to completion: 18 sec.

***** Percent complete: 2.00907 %
***** Current system time: Fri Jan 31 23:18:57 2020
***** Estimated time to completion: 13 sec.

***** Percent complete: 3.0136 %
***** Current system time: Fri Jan 31 23:18:57 2020
***** Estimated time to completion: 12 sec.

***** Percent complete: 4.01813 %
***** Current system time: Fri Jan 31 23:18:57 2020
***** Estimated time to completion: 11 sec.

***** Percent complete: 5.02266 %
***** Current system time: Fri Jan 31 23:18:57 2020
***** Estimated time to completion: 10 sec.

***** Percent complete: 6.0272 %
***** Current system time: Fri Jan 31 23:18:57 2020
***** Estimated time to completion: 10 sec.

***** Percent complete: 7.03173 %
***** Current system time: Fri Jan 31 23:18:57 2020
***** Estimated time to completion: 10 sec.

***** Percent complete: 8.03626 %
***** Current system time: Fri Jan 31 23:18:57 2020
***** Estimated time to completion:  9 sec.

***** Percent complete: 9.04079 %
***** Current system time: Fri Jan 31 23:18:57 2020
***** Estimated time to completion:  9 sec.

***** Percent complete: 10.0453 %
***** Current system time: Fri Jan 31 23:18:57 2020
***** Estimated time to completion:  9 sec.

***** Percent complete: 11.0499 %
***** Current system time: Fri Jan 31 23:18:57 2020
***** Estimated time to completion:  9 sec.

***** Percent complete: 12.0544 %
***** Current system time: Fri Jan 31 23:18:58 2020
***** Estimated time to completion:  9 sec.

***** Percent complete: 13.0556 %
***** Current system time: Fri Jan 31 23:18:58 2020
***** Estimated time to completion:  9 sec.

***** Percent complete: 14.0595 %
***** Current system time: Fri Jan 31 23:18:58 2020
***** Estimated time to completion:  8 sec.

***** Percent complete: 15.0637 %
***** Current system time: Fri Jan 31 23:18:58 2020
***** Estimated time to completion:  8 sec.

***** Percent complete: 16.0668 %
***** Current system time: Fri Jan 31 23:18:58 2020
***** Estimated time to completion:  8 sec.

***** Percent complete: 17.0689 %
***** Current system time: Fri Jan 31 23:18:58 2020
***** Estimated time to completion:  8 sec.

***** Percent complete: 18.07 %
***** Current system time: Fri Jan 31 23:18:58 2020
***** Estimated time to completion:  8 sec.

***** Percent complete: 19.074 %
***** Current system time: Fri Jan 31 23:18:58 2020
***** Estimated time to completion:  8 sec.

***** Percent complete: 20.0785 %
***** Current system time: Fri Jan 31 23:18:58 2020
***** Estimated time to completion:  8 sec.

***** Percent complete: 21.0805 %
***** Current system time: Fri Jan 31 23:18:58 2020
***** Estimated time to completion:  8 sec.

***** Percent complete: 22.0854 %
***** Current system time: Fri Jan 31 23:18:59 2020
***** Estimated time to completion:  7 sec.

***** Percent complete: 23.0899 %
***** Current system time: Fri Jan 31 23:18:59 2020
***** Estimated time to completion:  7 sec.

***** Percent complete: 24.0907 %
***** Current system time: Fri Jan 31 23:18:59 2020
***** Estimated time to completion:  7 sec.

***** Percent complete: 25.0908 %
***** Current system time: Fri Jan 31 23:18:59 2020
***** Estimated time to completion:  7 sec.

***** Percent complete: 26.0916 %
***** Current system time: Fri Jan 31 23:18:59 2020
***** Estimated time to completion:  7 sec.

***** Percent complete: 27.0961 %
***** Current system time: Fri Jan 31 23:18:59 2020
***** Estimated time to completion:  7 sec.

***** Percent complete: 28.1006 %
***** Current system time: Fri Jan 31 23:18:59 2020
***** Estimated time to completion:  7 sec.

***** Percent complete: 29.1052 %
***** Current system time: Fri Jan 31 23:18:59 2020
***** Estimated time to completion:  7 sec.

***** Percent complete: 30.1097 %
***** Current system time: Fri Jan 31 23:18:59 2020
***** Estimated time to completion:  7 sec.

***** Percent complete: 31.1142 %
***** Current system time: Fri Jan 31 23:18:59 2020
***** Estimated time to completion:  6 sec.

***** Percent complete: 32.1188 %
***** Current system time: Fri Jan 31 23:19:00 2020
***** Estimated time to completion:  6 sec.

***** Percent complete: 33.1233 %
***** Current system time: Fri Jan 31 23:19:00 2020
***** Estimated time to completion:  6 sec.

***** Percent complete: 34.1278 %
***** Current system time: Fri Jan 31 23:19:00 2020
***** Estimated time to completion:  6 sec.

***** Percent complete: 35.1324 %
***** Current system time: Fri Jan 31 23:19:00 2020
***** Estimated time to completion:  6 sec.

***** Percent complete: 36.1369 %
***** Current system time: Fri Jan 31 23:19:00 2020
***** Estimated time to completion:  6 sec.

***** Percent complete: 37.1414 %
***** Current system time: Fri Jan 31 23:19:00 2020
***** Estimated time to completion:  6 sec.

***** Percent complete: 38.146 %
***** Current system time: Fri Jan 31 23:19:00 2020
***** Estimated time to completion:  6 sec.

***** Percent complete: 39.1505 %
***** Current system time: Fri Jan 31 23:19:00 2020
***** Estimated time to completion:  6 sec.

***** Percent complete: 40.155 %
***** Current system time: Fri Jan 31 23:19:00 2020
***** Estimated time to completion:  5 sec.

***** Percent complete: 41.1596 %
***** Current system time: Fri Jan 31 23:19:00 2020
***** Estimated time to completion:  5 sec.

***** Percent complete: 42.1641 %
***** Current system time: Fri Jan 31 23:19:01 2020
***** Estimated time to completion:  5 sec.

***** Percent complete: 43.1686 %
***** Current system time: Fri Jan 31 23:19:01 2020
***** Estimated time to completion:  5 sec.

***** Percent complete: 44.1732 %
***** Current system time: Fri Jan 31 23:19:01 2020
***** Estimated time to completion:  5 sec.

***** Percent complete: 45.1777 %
***** Current system time: Fri Jan 31 23:19:01 2020
***** Estimated time to completion:  5 sec.

***** Percent complete: 46.1822 %
***** Current system time: Fri Jan 31 23:19:01 2020
***** Estimated time to completion:  5 sec.

***** Percent complete: 47.1868 %
***** Current system time: Fri Jan 31 23:19:01 2020
***** Estimated time to completion:  5 sec.

***** Percent complete: 48.1913 %
***** Current system time: Fri Jan 31 23:19:01 2020
***** Estimated time to completion:  5 sec.

***** Percent complete: 49.1958 %
***** Current system time: Fri Jan 31 23:19:01 2020
***** Estimated time to completion:  5 sec.

***** Percent complete: 50.2004 %
***** Current system time: Fri Jan 31 23:19:01 2020
***** Estimated time to completion:  4 sec.

***** Percent complete: 51.2049 %
***** Current system time: Fri Jan 31 23:19:01 2020
***** Estimated time to completion:  4 sec.

***** Percent complete: 52.2094 %
***** Current system time: Fri Jan 31 23:19:02 2020
***** Estimated time to completion:  4 sec.

***** Percent complete: 53.214 %
***** Current system time: Fri Jan 31 23:19:02 2020
***** Estimated time to completion:  4 sec.

***** Percent complete: 54.2185 %
***** Current system time: Fri Jan 31 23:19:02 2020
***** Estimated time to completion:  4 sec.

***** Percent complete: 55.223 %
***** Current system time: Fri Jan 31 23:19:02 2020
***** Estimated time to completion:  4 sec.

***** Percent complete: 56.2276 %
***** Current system time: Fri Jan 31 23:19:02 2020
***** Estimated time to completion:  4 sec.

***** Percent complete: 57.2321 %
***** Current system time: Fri Jan 31 23:19:02 2020
***** Estimated time to completion:  4 sec.

***** Percent complete: 58.2366 %
***** Current system time: Fri Jan 31 23:19:02 2020
***** Estimated time to completion:  4 sec.

***** Percent complete: 59.2412 %
***** Current system time: Fri Jan 31 23:19:02 2020
***** Estimated time to completion:  4 sec.

***** Percent complete: 60.2457 %
***** Current system time: Fri Jan 31 23:19:02 2020
***** Estimated time to completion:  3 sec.

***** Percent complete: 61.2502 %
***** Current system time: Fri Jan 31 23:19:02 2020
***** Estimated time to completion:  3 sec.

***** Percent complete: 62.2548 %
***** Current system time: Fri Jan 31 23:19:02 2020
***** Estimated time to completion:  3 sec.

***** Percent complete: 63.2583 %
***** Current system time: Fri Jan 31 23:19:03 2020
***** Estimated time to completion:  3 sec.

***** Percent complete: 64.2624 %
***** Current system time: Fri Jan 31 23:19:03 2020
***** Estimated time to completion:  3 sec.

***** Percent complete: 65.2664 %
***** Current system time: Fri Jan 31 23:19:03 2020
***** Estimated time to completion:  3 sec.

***** Percent complete: 66.2695 %
***** Current system time: Fri Jan 31 23:19:03 2020
***** Estimated time to completion:  3 sec.

***** Percent complete: 67.2715 %
***** Current system time: Fri Jan 31 23:19:03 2020
***** Estimated time to completion:  3 sec.

***** Percent complete: 68.2726 %
***** Current system time: Fri Jan 31 23:19:03 2020
***** Estimated time to completion:  3 sec.

***** Percent complete: 69.2766 %
***** Current system time: Fri Jan 31 23:19:03 2020
***** Estimated time to completion:  3 sec.

***** Percent complete: 70.2812 %
***** Current system time: Fri Jan 31 23:19:03 2020
***** Estimated time to completion:  2 sec.

***** Percent complete: 71.2832 %
***** Current system time: Fri Jan 31 23:19:03 2020
***** Estimated time to completion:  2 sec.

***** Percent complete: 72.2833 %
***** Current system time: Fri Jan 31 23:19:03 2020
***** Estimated time to completion:  2 sec.

***** Percent complete: 73.2878 %
***** Current system time: Fri Jan 31 23:19:04 2020
***** Estimated time to completion:  2 sec.

***** Percent complete: 74.2884 %
***** Current system time: Fri Jan 31 23:19:04 2020
***** Estimated time to completion:  2 sec.

***** Percent complete: 75.29 %
***** Current system time: Fri Jan 31 23:19:04 2020
***** Estimated time to completion:  2 sec.

***** Percent complete: 76.2945 %
***** Current system time: Fri Jan 31 23:19:04 2020
***** Estimated time to completion:  2 sec.

***** Percent complete: 77.299 %
***** Current system time: Fri Jan 31 23:19:04 2020
***** Estimated time to completion:  2 sec.

***** Percent complete: 78.3036 %
***** Current system time: Fri Jan 31 23:19:04 2020
***** Estimated time to completion:  2 sec.

***** Percent complete: 79.3081 %
***** Current system time: Fri Jan 31 23:19:04 2020
***** Estimated time to completion:  2 sec.

***** Percent complete: 80.3126 %
***** Current system time: Fri Jan 31 23:19:04 2020
***** Estimated time to completion:  1 sec.

***** Percent complete: 81.3172 %
***** Current system time: Fri Jan 31 23:19:04 2020
***** Estimated time to completion:  1 sec.

***** Percent complete: 82.3217 %
***** Current system time: Fri Jan 31 23:19:04 2020
***** Estimated time to completion:  1 sec.

***** Percent complete: 83.3262 %
***** Current system time: Fri Jan 31 23:19:05 2020
***** Estimated time to completion:  1 sec.

***** Percent complete: 84.3308 %
***** Current system time: Fri Jan 31 23:19:05 2020
***** Estimated time to completion:  1 sec.

***** Percent complete: 85.3353 %
***** Current system time: Fri Jan 31 23:19:05 2020
***** Estimated time to completion:  1 sec.

***** Percent complete: 86.3398 %
***** Current system time: Fri Jan 31 23:19:05 2020
***** Estimated time to completion:  1 sec.

***** Percent complete: 87.3444 %
***** Current system time: Fri Jan 31 23:19:05 2020
***** Estimated time to completion:  1 sec.

***** Percent complete: 88.3489 %
***** Current system time: Fri Jan 31 23:19:05 2020
***** Estimated time to completion:  1 sec.

***** Percent complete: 89.3534 %
***** Current system time: Fri Jan 31 23:19:05 2020
***** Estimated time to completion:  1 sec.

***** Percent complete: 90.358 %
***** Current system time: Fri Jan 31 23:19:05 2020
***** Estimated time to completion:  0 sec.

***** Percent complete: 91.3625 %
***** Current system time: Fri Jan 31 23:19:05 2020
***** Estimated time to completion:  0 sec.

***** Percent complete: 92.367 %
***** Current system time: Fri Jan 31 23:19:05 2020
***** Estimated time to completion:  0 sec.

***** Percent complete: 93.3716 %
***** Current system time: Fri Jan 31 23:19:06 2020
***** Estimated time to completion:  0 sec.

***** Percent complete: 94.3761 %
***** Current system time: Fri Jan 31 23:19:06 2020
***** Estimated time to completion:  0 sec.

***** Percent complete: 95.3806 %
***** Current system time: Fri Jan 31 23:19:06 2020
***** Estimated time to completion:  0 sec.

***** Percent complete: 96.3852 %
***** Current system time: Fri Jan 31 23:19:06 2020
***** Estimated time to completion:  0 sec.

***** Percent complete: 97.3897 %
***** Current system time: Fri Jan 31 23:19:06 2020
***** Estimated time to completion:  0 sec.

***** Percent complete: 98.3942 %
***** Current system time: Fri Jan 31 23:19:06 2020
***** Estimated time to completion:  0 sec.

***** Percent complete: 99.3988 %
***** Current system time: Fri Jan 31 23:19:06 2020
***** Estimated time to completion:  0 sec.

***** Problem read in and set up time: 0.04125 seconds
 ***** DCOP time: 0.0939999 seconds.  Breakdown follows:
	Number Successful Steps Taken:		1
	Number Failed Steps Attempted:		0
	Number Jacobians Evaluated:		245
	Number Iteration Matrix Factorizations:	0
	Number Linear Solves:			245
	Number Failed Linear Solves:		0
	Number Residual Evaluations:		264
	Number Nonlinear Convergence Failures:	0
	Total Residual Load Time:		0.0458264 seconds
	Total Jacobian Load Time:		0.00492144 seconds
	Total Linear Solution Time:		0.0178759 seconds

 ***** Transient Stepping time: 9.78613 seconds.  Breakdown follows:
	Number Successful Steps Taken:		20308
	Number Failed Steps Attempted:		0
	Number Jacobians Evaluated:		20388
	Number Iteration Matrix Factorizations:	0
	Number Linear Solves:			20388
	Number Failed Linear Solves:		0
	Number Residual Evaluations:		40696
	Number Nonlinear Convergence Failures:	0
	Total Residual Load Time:		6.91933 seconds
	Total Jacobian Load Time:		0.657849 seconds
	Total Linear Solution Time:		1.51581 seconds


***** Solution Summary *****
	Number Successful Steps Taken:		20309
	Number Failed Steps Attempted:		0
	Number Jacobians Evaluated:		20633
	Number Iteration Matrix Factorizations:	0
	Number Linear Solves:			20633
	Number Failed Linear Solves:		0
	Number Residual Evaluations:		40960
	Number Nonlinear Convergence Failures:	0
	Total Residual Load Time:		6.96516 seconds
	Total Jacobian Load Time:		0.66277 seconds
	Total Linear Solution Time:		1.53369 seconds


 ***** Measure Functions ***** 

FALL_DELAY = 6.192843e-11 with trig time= 3.535715e-10 and targ time= 4.154999e-10
Measure Start Time= 0.000000e+00	Measure End Time= 2.020840e-09

RISE_DELAY = 7.420998e-11 with trig time= 1.363986e-09 and targ time= 1.438196e-09
Measure Start Time= 0.000000e+00	Measure End Time= 2.020840e-09

RISE_SLEW = 1.068365e-10 with trig time= 1.389908e-09 and targ time= 1.496744e-09
Measure Start Time= 0.000000e+00	Measure End Time= 2.020840e-09

FALL_SLEW = 8.444194e-11 with trig time= 3.739732e-10 and targ time= 4.584152e-10
Measure Start Time= 0.000000e+00	Measure End Time= 2.020840e-09


***** Total Simulation Solvers Run Time: 9.88075 seconds
***** Total Elapsed Run Time:            9.92199 seconds
*****
***** End of Xyce(TM) Simulation
*****

Timing summary of 1 processor
                 Stats                   Count       CPU Time              Wall Time
---------------------------------------- ----- --------------------- ---------------------
Xyce                                         1        9.781 (100.0%)        9.923 (100.0%)
  Analysis                                   1        9.744 (99.62%)        9.880 (99.57%)
    Transient                                1        9.744 (99.62%)        9.880 (99.57%)
      Nonlinear Solve                    20309        9.356 (95.66%)        9.468 (95.42%)
        Residual                         40960        6.955 (71.11%)        7.007 (70.61%)
        Jacobian                         20633        0.671 ( 6.86%)        0.682 ( 6.87%)
        Linear Solve                     20633        1.530 (15.64%)        1.551 (15.63%)
      Successful DCOP Steps                  1        0.000 (<0.01%)        0.000 (<0.01%)
      Successful Step                    20308        0.249 ( 2.54%)        0.258 ( 2.60%)
  Netlist Import                             1        0.032 ( 0.33%)        0.036 ( 0.36%)
    Parse Context                            1        0.012 ( 0.12%)        0.014 ( 0.14%)
    Distribute Devices                       1        0.016 ( 0.17%)        0.018 ( 0.18%)
    Verify Devices                           1        0.000 (<0.01%)        0.000 (<0.01%)
    Instantiate                              1        0.003 ( 0.03%)        0.003 ( 0.03%)
  Late Initialization                        1        0.003 ( 0.03%)        0.003 ( 0.03%)
    Global Indices                           1        0.001 ( 0.01%)        0.001 ( 0.01%)
  Setup Matrix Structure                     1        0.001 (<0.01%)        0.001 (<0.01%)

