
*****
***** Welcome to the Xyce(TM) Parallel Electronic Simulator
*****
***** This is version Xyce Release 6.12-opensource
***** Date: Fri Jan 31 23:18:21 PST 2020


***** Executing netlist spice_decks.tau2020_testsuite0131/net_5.sp

***** Reading and parsing netlist...
Netlist warning: No print specified
Netlist warning in file
 ../../ASAP7_PDKandLIB_v1p6/asap7PDK_r1p6/models/hspice/7nm_TT.pm.modified at
 or near line 68
 No model parameter VERSION found for model NMOS_RVT of type NMOS, parameter
 ignored.
Netlist warning in file
 ../../ASAP7_PDKandLIB_v1p6/asap7PDK_r1p6/models/hspice/7nm_TT.pm.modified at
 or near line 68
 Device model NMOS_RVT: ADMSbsimcmg: Parameter EOTACC value 1e-10 out of range
 [ 0.1*1.0e-9,  (+inf) [
Netlist warning in file
 ../../ASAP7_PDKandLIB_v1p6/asap7PDK_r1p6/models/hspice/7nm_TT.pm.modified at
 or near line 324
 No model parameter VERSION found for model PMOS_RVT of type PMOS, parameter
 ignored.
***** Setting up topology...

Netlist warning: Voltage Node (XI11:N_NOXREF_5_1) does not have a DC path to
 ground
Netlist warning: Voltage Node (XI11:N_NOXREF_8_1) does not have a DC path to
 ground
Netlist warning: Voltage Node (XI11:N_NOXREF_6_1) does not have a DC path to
 ground
Netlist warning: Voltage Node (XI12:N_NOXREF_6_1) does not have a DC path to
 ground
Netlist warning: Voltage Node (XI12:N_NOXREF_8_1) does not have a DC path to
 ground
Netlist warning: Voltage Node (XI12:N_NOXREF_7_1) does not have a DC path to
 ground
Netlist warning: Voltage Node (XI11:N_NOXREF_7_1) does not have a DC path to
 ground
Netlist warning: Voltage Node (XI12:N_NOXREF_9_1) does not have a DC path to
 ground
***** Device Count Summary ...
       C level 1 (Capacitor)                  202
       m level 107 (BSIM-CMG FINFET v107.0.0)  38
       R level 1 (Resistor)                   290
       V level 1 (Independent Voltage Source)   3
       ------------------------------------------
       Total Devices                          533
***** Setting up matrix structure...
***** Number of Unknowns = 373
***** Initializing...

***** Beginning DC Operating Point Calculation...

***** Beginning Transient Calculation...

***** Percent complete: 1.00004 %
***** Current system time: Fri Jan 31 23:18:21 2020
***** Estimated time to completion: 29 sec.

***** Percent complete: 2.00009 %
***** Current system time: Fri Jan 31 23:18:21 2020
***** Estimated time to completion: 21 sec.

***** Percent complete: 3.00013 %
***** Current system time: Fri Jan 31 23:18:21 2020
***** Estimated time to completion: 18 sec.

***** Percent complete: 4.00018 %
***** Current system time: Fri Jan 31 23:18:21 2020
***** Estimated time to completion: 17 sec.

***** Percent complete: 5.00022 %
***** Current system time: Fri Jan 31 23:18:21 2020
***** Estimated time to completion: 16 sec.

***** Percent complete: 6.00027 %
***** Current system time: Fri Jan 31 23:18:22 2020
***** Estimated time to completion: 15 sec.

***** Percent complete: 7.00031 %
***** Current system time: Fri Jan 31 23:18:22 2020
***** Estimated time to completion: 15 sec.

***** Percent complete: 8.00035 %
***** Current system time: Fri Jan 31 23:18:22 2020
***** Estimated time to completion: 14 sec.

***** Percent complete: 9.0004 %
***** Current system time: Fri Jan 31 23:18:22 2020
***** Estimated time to completion: 14 sec.

***** Percent complete: 10.0004 %
***** Current system time: Fri Jan 31 23:18:22 2020
***** Estimated time to completion: 14 sec.

***** Percent complete: 11.0005 %
***** Current system time: Fri Jan 31 23:18:22 2020
***** Estimated time to completion: 13 sec.

***** Percent complete: 12.0005 %
***** Current system time: Fri Jan 31 23:18:22 2020
***** Estimated time to completion: 13 sec.

***** Percent complete: 13.0024 %
***** Current system time: Fri Jan 31 23:18:23 2020
***** Estimated time to completion: 13 sec.

***** Percent complete: 14.0064 %
***** Current system time: Fri Jan 31 23:18:23 2020
***** Estimated time to completion: 13 sec.

***** Percent complete: 15.0098 %
***** Current system time: Fri Jan 31 23:18:23 2020
***** Estimated time to completion: 12 sec.

***** Percent complete: 16.0118 %
***** Current system time: Fri Jan 31 23:18:23 2020
***** Estimated time to completion: 12 sec.

***** Percent complete: 17.0133 %
***** Current system time: Fri Jan 31 23:18:23 2020
***** Estimated time to completion: 12 sec.

***** Percent complete: 18.0143 %
***** Current system time: Fri Jan 31 23:18:23 2020
***** Estimated time to completion: 12 sec.

***** Percent complete: 19.0192 %
***** Current system time: Fri Jan 31 23:18:23 2020
***** Estimated time to completion: 12 sec.

***** Percent complete: 20.0193 %
***** Current system time: Fri Jan 31 23:18:24 2020
***** Estimated time to completion: 11 sec.

***** Percent complete: 21.0231 %
***** Current system time: Fri Jan 31 23:18:24 2020
***** Estimated time to completion: 11 sec.

***** Percent complete: 22.0254 %
***** Current system time: Fri Jan 31 23:18:24 2020
***** Estimated time to completion: 11 sec.

***** Percent complete: 23.0254 %
***** Current system time: Fri Jan 31 23:18:24 2020
***** Estimated time to completion: 11 sec.

***** Percent complete: 24.0271 %
***** Current system time: Fri Jan 31 23:18:24 2020
***** Estimated time to completion: 11 sec.

***** Percent complete: 25.0276 %
***** Current system time: Fri Jan 31 23:18:24 2020
***** Estimated time to completion: 11 sec.

***** Percent complete: 26.031 %
***** Current system time: Fri Jan 31 23:18:25 2020
***** Estimated time to completion: 11 sec.

***** Percent complete: 27.031 %
***** Current system time: Fri Jan 31 23:18:25 2020
***** Estimated time to completion: 10 sec.

***** Percent complete: 28.031 %
***** Current system time: Fri Jan 31 23:18:25 2020
***** Estimated time to completion: 10 sec.

***** Percent complete: 29.0311 %
***** Current system time: Fri Jan 31 23:18:25 2020
***** Estimated time to completion: 10 sec.

***** Percent complete: 30.0311 %
***** Current system time: Fri Jan 31 23:18:25 2020
***** Estimated time to completion: 10 sec.

***** Percent complete: 31.0312 %
***** Current system time: Fri Jan 31 23:18:25 2020
***** Estimated time to completion: 10 sec.

***** Percent complete: 32.0312 %
***** Current system time: Fri Jan 31 23:18:25 2020
***** Estimated time to completion: 10 sec.

***** Percent complete: 33.0313 %
***** Current system time: Fri Jan 31 23:18:26 2020
***** Estimated time to completion:  9 sec.

***** Percent complete: 34.0313 %
***** Current system time: Fri Jan 31 23:18:26 2020
***** Estimated time to completion:  9 sec.

***** Percent complete: 35.0314 %
***** Current system time: Fri Jan 31 23:18:26 2020
***** Estimated time to completion:  9 sec.

***** Percent complete: 36.0314 %
***** Current system time: Fri Jan 31 23:18:26 2020
***** Estimated time to completion:  9 sec.

***** Percent complete: 37.0314 %
***** Current system time: Fri Jan 31 23:18:26 2020
***** Estimated time to completion:  9 sec.

***** Percent complete: 38.0315 %
***** Current system time: Fri Jan 31 23:18:26 2020
***** Estimated time to completion:  9 sec.

***** Percent complete: 39.0315 %
***** Current system time: Fri Jan 31 23:18:26 2020
***** Estimated time to completion:  8 sec.

***** Percent complete: 40.0316 %
***** Current system time: Fri Jan 31 23:18:27 2020
***** Estimated time to completion:  8 sec.

***** Percent complete: 41.0316 %
***** Current system time: Fri Jan 31 23:18:27 2020
***** Estimated time to completion:  8 sec.

***** Percent complete: 42.0317 %
***** Current system time: Fri Jan 31 23:18:27 2020
***** Estimated time to completion:  8 sec.

***** Percent complete: 43.0317 %
***** Current system time: Fri Jan 31 23:18:27 2020
***** Estimated time to completion:  8 sec.

***** Percent complete: 44.0318 %
***** Current system time: Fri Jan 31 23:18:27 2020
***** Estimated time to completion:  8 sec.

***** Percent complete: 45.0318 %
***** Current system time: Fri Jan 31 23:18:27 2020
***** Estimated time to completion:  8 sec.

***** Percent complete: 46.0318 %
***** Current system time: Fri Jan 31 23:18:27 2020
***** Estimated time to completion:  7 sec.

***** Percent complete: 47.0319 %
***** Current system time: Fri Jan 31 23:18:28 2020
***** Estimated time to completion:  7 sec.

***** Percent complete: 48.0319 %
***** Current system time: Fri Jan 31 23:18:28 2020
***** Estimated time to completion:  7 sec.

***** Percent complete: 49.032 %
***** Current system time: Fri Jan 31 23:18:28 2020
***** Estimated time to completion:  7 sec.

***** Percent complete: 50.032 %
***** Current system time: Fri Jan 31 23:18:28 2020
***** Estimated time to completion:  7 sec.

***** Percent complete: 51.0321 %
***** Current system time: Fri Jan 31 23:18:28 2020
***** Estimated time to completion:  7 sec.

***** Percent complete: 52.0321 %
***** Current system time: Fri Jan 31 23:18:28 2020
***** Estimated time to completion:  7 sec.

***** Percent complete: 53.0322 %
***** Current system time: Fri Jan 31 23:18:28 2020
***** Estimated time to completion:  6 sec.

***** Percent complete: 54.0322 %
***** Current system time: Fri Jan 31 23:18:29 2020
***** Estimated time to completion:  6 sec.

***** Percent complete: 55.0322 %
***** Current system time: Fri Jan 31 23:18:29 2020
***** Estimated time to completion:  6 sec.

***** Percent complete: 56.0323 %
***** Current system time: Fri Jan 31 23:18:29 2020
***** Estimated time to completion:  6 sec.

***** Percent complete: 57.0323 %
***** Current system time: Fri Jan 31 23:18:29 2020
***** Estimated time to completion:  6 sec.

***** Percent complete: 58.0324 %
***** Current system time: Fri Jan 31 23:18:29 2020
***** Estimated time to completion:  6 sec.

***** Percent complete: 59.0324 %
***** Current system time: Fri Jan 31 23:18:29 2020
***** Estimated time to completion:  6 sec.

***** Percent complete: 60.0325 %
***** Current system time: Fri Jan 31 23:18:29 2020
***** Estimated time to completion:  5 sec.

***** Percent complete: 61.0325 %
***** Current system time: Fri Jan 31 23:18:30 2020
***** Estimated time to completion:  5 sec.

***** Percent complete: 62.0326 %
***** Current system time: Fri Jan 31 23:18:30 2020
***** Estimated time to completion:  5 sec.

***** Percent complete: 63.0368 %
***** Current system time: Fri Jan 31 23:18:30 2020
***** Estimated time to completion:  5 sec.

***** Percent complete: 64.0408 %
***** Current system time: Fri Jan 31 23:18:30 2020
***** Estimated time to completion:  5 sec.

***** Percent complete: 65.0443 %
***** Current system time: Fri Jan 31 23:18:30 2020
***** Estimated time to completion:  5 sec.

***** Percent complete: 66.0463 %
***** Current system time: Fri Jan 31 23:18:30 2020
***** Estimated time to completion:  5 sec.

***** Percent complete: 67.0478 %
***** Current system time: Fri Jan 31 23:18:31 2020
***** Estimated time to completion:  4 sec.

***** Percent complete: 68.0488 %
***** Current system time: Fri Jan 31 23:18:31 2020
***** Estimated time to completion:  4 sec.

***** Percent complete: 69.0489 %
***** Current system time: Fri Jan 31 23:18:31 2020
***** Estimated time to completion:  4 sec.

***** Percent complete: 70.0489 %
***** Current system time: Fri Jan 31 23:18:31 2020
***** Estimated time to completion:  4 sec.

***** Percent complete: 71.0529 %
***** Current system time: Fri Jan 31 23:18:31 2020
***** Estimated time to completion:  4 sec.

***** Percent complete: 72.0559 %
***** Current system time: Fri Jan 31 23:18:31 2020
***** Estimated time to completion:  4 sec.

***** Percent complete: 73.0559 %
***** Current system time: Fri Jan 31 23:18:31 2020
***** Estimated time to completion:  3 sec.

***** Percent complete: 74.0565 %
***** Current system time: Fri Jan 31 23:18:32 2020
***** Estimated time to completion:  3 sec.

***** Percent complete: 75.057 %
***** Current system time: Fri Jan 31 23:18:32 2020
***** Estimated time to completion:  3 sec.

***** Percent complete: 76.0605 %
***** Current system time: Fri Jan 31 23:18:32 2020
***** Estimated time to completion:  3 sec.

***** Percent complete: 77.0606 %
***** Current system time: Fri Jan 31 23:18:32 2020
***** Estimated time to completion:  3 sec.

***** Percent complete: 78.0606 %
***** Current system time: Fri Jan 31 23:18:32 2020
***** Estimated time to completion:  3 sec.

***** Percent complete: 79.0606 %
***** Current system time: Fri Jan 31 23:18:32 2020
***** Estimated time to completion:  3 sec.

***** Percent complete: 80.0607 %
***** Current system time: Fri Jan 31 23:18:32 2020
***** Estimated time to completion:  2 sec.

***** Percent complete: 81.0607 %
***** Current system time: Fri Jan 31 23:18:33 2020
***** Estimated time to completion:  2 sec.

***** Percent complete: 82.0608 %
***** Current system time: Fri Jan 31 23:18:33 2020
***** Estimated time to completion:  2 sec.

***** Percent complete: 83.0608 %
***** Current system time: Fri Jan 31 23:18:33 2020
***** Estimated time to completion:  2 sec.

***** Percent complete: 84.0609 %
***** Current system time: Fri Jan 31 23:18:33 2020
***** Estimated time to completion:  2 sec.

***** Percent complete: 85.0609 %
***** Current system time: Fri Jan 31 23:18:33 2020
***** Estimated time to completion:  2 sec.

***** Percent complete: 86.061 %
***** Current system time: Fri Jan 31 23:18:33 2020
***** Estimated time to completion:  2 sec.

***** Percent complete: 87.061 %
***** Current system time: Fri Jan 31 23:18:34 2020
***** Estimated time to completion:  1 sec.

***** Percent complete: 88.061 %
***** Current system time: Fri Jan 31 23:18:34 2020
***** Estimated time to completion:  1 sec.

***** Percent complete: 89.0611 %
***** Current system time: Fri Jan 31 23:18:34 2020
***** Estimated time to completion:  1 sec.

***** Percent complete: 90.0611 %
***** Current system time: Fri Jan 31 23:18:34 2020
***** Estimated time to completion:  1 sec.

***** Percent complete: 91.0612 %
***** Current system time: Fri Jan 31 23:18:34 2020
***** Estimated time to completion:  1 sec.

***** Percent complete: 92.0612 %
***** Current system time: Fri Jan 31 23:18:34 2020
***** Estimated time to completion:  1 sec.

***** Percent complete: 93.0613 %
***** Current system time: Fri Jan 31 23:18:34 2020
***** Estimated time to completion:  1 sec.

***** Percent complete: 94.0613 %
***** Current system time: Fri Jan 31 23:18:35 2020
***** Estimated time to completion:  0 sec.

***** Percent complete: 95.0614 %
***** Current system time: Fri Jan 31 23:18:35 2020
***** Estimated time to completion:  0 sec.

***** Percent complete: 96.0614 %
***** Current system time: Fri Jan 31 23:18:35 2020
***** Estimated time to completion:  0 sec.

***** Percent complete: 97.0614 %
***** Current system time: Fri Jan 31 23:18:35 2020
***** Estimated time to completion:  0 sec.

***** Percent complete: 98.0615 %
***** Current system time: Fri Jan 31 23:18:35 2020
***** Estimated time to completion:  0 sec.

***** Percent complete: 99.0615 %
***** Current system time: Fri Jan 31 23:18:35 2020
***** Estimated time to completion:  0 sec.

***** Problem read in and set up time: 0.0463741 seconds
 ***** DCOP time: 0.149578 seconds.  Breakdown follows:
	Number Successful Steps Taken:		1
	Number Failed Steps Attempted:		0
	Number Jacobians Evaluated:		286
	Number Iteration Matrix Factorizations:	0
	Number Linear Solves:			286
	Number Failed Linear Solves:		0
	Number Residual Evaluations:		305
	Number Nonlinear Convergence Failures:	0
	Total Residual Load Time:		0.0810595 seconds
	Total Jacobian Load Time:		0.00817704 seconds
	Total Linear Solution Time:		0.0284579 seconds

 ***** Transient Stepping time: 14.6227 seconds.  Breakdown follows:
	Number Successful Steps Taken:		20400
	Number Failed Steps Attempted:		0
	Number Jacobians Evaluated:		20476
	Number Iteration Matrix Factorizations:	0
	Number Linear Solves:			20476
	Number Failed Linear Solves:		0
	Number Residual Evaluations:		40876
	Number Nonlinear Convergence Failures:	0
	Total Residual Load Time:		10.8283 seconds
	Total Jacobian Load Time:		0.916564 seconds
	Total Linear Solution Time:		2.083 seconds


***** Solution Summary *****
	Number Successful Steps Taken:		20401
	Number Failed Steps Attempted:		0
	Number Jacobians Evaluated:		20762
	Number Iteration Matrix Factorizations:	0
	Number Linear Solves:			20762
	Number Failed Linear Solves:		0
	Number Residual Evaluations:		41181
	Number Nonlinear Convergence Failures:	0
	Total Residual Load Time:		10.9093 seconds
	Total Jacobian Load Time:		0.924742 seconds
	Total Linear Solution Time:		2.11146 seconds


 ***** Measure Functions ***** 

FALL_DELAY = 8.367265e-11 with trig time= 3.567144e-10 and targ time= 4.403871e-10
Measure Start Time= 0.000000e+00	Measure End Time= 2.029910e-09

RISE_DELAY = 9.939723e-11 with trig time= 1.371670e-09 and targ time= 1.471067e-09
Measure Start Time= 0.000000e+00	Measure End Time= 2.029910e-09

RISE_SLEW = 1.723010e-10 with trig time= 1.407420e-09 and targ time= 1.579721e-09
Measure Start Time= 0.000000e+00	Measure End Time= 2.029910e-09

FALL_SLEW = 1.394261e-10 with trig time= 3.859652e-10 and targ time= 5.253913e-10
Measure Start Time= 0.000000e+00	Measure End Time= 2.029910e-09


***** Total Simulation Solvers Run Time: 14.7731 seconds
***** Total Elapsed Run Time:            14.8195 seconds
*****
***** End of Xyce(TM) Simulation
*****

Timing summary of 1 processor
                 Stats                   Count       CPU Time              Wall Time
---------------------------------------- ----- --------------------- ---------------------
Xyce                                         1       14.661 (100.0%)       14.820 (100.0%)
  Analysis                                   1       14.619 (99.71%)       14.773 (99.68%)
    Transient                                1       14.619 (99.71%)       14.773 (99.68%)
      Nonlinear Solve                    20401       14.158 (96.57%)       14.282 (96.37%)
        Residual                         41181       10.892 (74.29%)       10.950 (73.89%)
        Jacobian                         20762        0.932 ( 6.35%)        0.945 ( 6.38%)
        Linear Solve                     20762        2.106 (14.37%)        2.130 (14.38%)
      Successful DCOP Steps                  1        0.000 (<0.01%)        0.000 (<0.01%)
      Successful Step                    20400        0.294 ( 2.01%)        0.304 ( 2.05%)
  Netlist Import                             1        0.037 ( 0.25%)        0.041 ( 0.28%)
    Parse Context                            1        0.012 ( 0.08%)        0.014 ( 0.10%)
    Distribute Devices                       1        0.020 ( 0.14%)        0.022 ( 0.15%)
    Verify Devices                           1        0.000 (<0.01%)        0.000 (<0.01%)
    Instantiate                              1        0.003 ( 0.02%)        0.003 ( 0.02%)
  Late Initialization                        1        0.003 ( 0.02%)        0.004 ( 0.03%)
    Global Indices                           1        0.002 ( 0.01%)        0.002 ( 0.01%)
  Setup Matrix Structure                     1        0.001 (<0.01%)        0.001 (<0.01%)

