
*****
***** Welcome to the Xyce(TM) Parallel Electronic Simulator
*****
***** This is version Xyce Release 6.12-opensource
***** Date: Fri Jan 31 23:17:48 PST 2020


***** Executing netlist spice_decks.tau2020_testsuite0131/net_3.sp

***** Reading and parsing netlist...
Netlist warning: No print specified
Netlist warning in file
 ../../ASAP7_PDKandLIB_v1p6/asap7PDK_r1p6/models/hspice/7nm_TT.pm.modified at
 or near line 68
 No model parameter VERSION found for model NMOS_RVT of type NMOS, parameter
 ignored.
Netlist warning in file
 ../../ASAP7_PDKandLIB_v1p6/asap7PDK_r1p6/models/hspice/7nm_TT.pm.modified at
 or near line 68
 Device model NMOS_RVT: ADMSbsimcmg: Parameter EOTACC value 1e-10 out of range
 [ 0.1*1.0e-9,  (+inf) [
Netlist warning in file
 ../../ASAP7_PDKandLIB_v1p6/asap7PDK_r1p6/models/hspice/7nm_TT.pm.modified at
 or near line 324
 No model parameter VERSION found for model PMOS_RVT of type PMOS, parameter
 ignored.
***** Setting up topology...

Netlist warning: Voltage Node (XI7:N_NOXREF_9_1) does not have a DC path to
 ground
Netlist warning: Voltage Node (XI7:N_NOXREF_8_1) does not have a DC path to
 ground
Netlist warning: Voltage Node (XI8:N_NOXREF_5_1) does not have a DC path to
 ground
Netlist warning: Voltage Node (XI8:N_NOXREF_6_1) does not have a DC path to
 ground
Netlist warning: Voltage Node (XI8:N_NOXREF_7_1) does not have a DC path to
 ground
Netlist warning: Voltage Node (XI7:N_NOXREF_7_1) does not have a DC path to
 ground
Netlist warning: Voltage Node (XI7:N_NOXREF_6_1) does not have a DC path to
 ground
Netlist warning: Voltage Node (XI8:N_NOXREF_8_1) does not have a DC path to
 ground
***** Device Count Summary ...
       C level 1 (Capacitor)                  182
       m level 107 (BSIM-CMG FINFET v107.0.0)  32
       R level 1 (Resistor)                   287
       V level 1 (Independent Voltage Source)   3
       ------------------------------------------
       Total Devices                          504
***** Setting up matrix structure...
***** Number of Unknowns = 353
***** Initializing...

***** Beginning DC Operating Point Calculation...

***** Beginning Transient Calculation...

***** Percent complete: 1.00092 %
***** Current system time: Fri Jan 31 23:17:48 2020
***** Estimated time to completion: 30 sec.

***** Percent complete: 2.00184 %
***** Current system time: Fri Jan 31 23:17:49 2020
***** Estimated time to completion: 22 sec.

***** Percent complete: 3.00275 %
***** Current system time: Fri Jan 31 23:17:49 2020
***** Estimated time to completion: 19 sec.

***** Percent complete: 4.00367 %
***** Current system time: Fri Jan 31 23:17:49 2020
***** Estimated time to completion: 17 sec.

***** Percent complete: 5.00459 %
***** Current system time: Fri Jan 31 23:17:49 2020
***** Estimated time to completion: 16 sec.

***** Percent complete: 6.00551 %
***** Current system time: Fri Jan 31 23:17:49 2020
***** Estimated time to completion: 16 sec.

***** Percent complete: 7.00642 %
***** Current system time: Fri Jan 31 23:17:49 2020
***** Estimated time to completion: 15 sec.

***** Percent complete: 8.00734 %
***** Current system time: Fri Jan 31 23:17:50 2020
***** Estimated time to completion: 15 sec.

***** Percent complete: 9.00826 %
***** Current system time: Fri Jan 31 23:17:50 2020
***** Estimated time to completion: 15 sec.

***** Percent complete: 10.0092 %
***** Current system time: Fri Jan 31 23:17:50 2020
***** Estimated time to completion: 14 sec.

***** Percent complete: 11.0101 %
***** Current system time: Fri Jan 31 23:17:50 2020
***** Estimated time to completion: 14 sec.

***** Percent complete: 12.011 %
***** Current system time: Fri Jan 31 23:17:50 2020
***** Estimated time to completion: 14 sec.

***** Percent complete: 13.0119 %
***** Current system time: Fri Jan 31 23:17:50 2020
***** Estimated time to completion: 14 sec.

***** Percent complete: 14.0128 %
***** Current system time: Fri Jan 31 23:17:50 2020
***** Estimated time to completion: 13 sec.

***** Percent complete: 15.0134 %
***** Current system time: Fri Jan 31 23:17:51 2020
***** Estimated time to completion: 13 sec.

***** Percent complete: 16.0151 %
***** Current system time: Fri Jan 31 23:17:51 2020
***** Estimated time to completion: 13 sec.

***** Percent complete: 17.0159 %
***** Current system time: Fri Jan 31 23:17:51 2020
***** Estimated time to completion: 13 sec.

***** Percent complete: 18.0179 %
***** Current system time: Fri Jan 31 23:17:51 2020
***** Estimated time to completion: 12 sec.

***** Percent complete: 19.0198 %
***** Current system time: Fri Jan 31 23:17:51 2020
***** Estimated time to completion: 12 sec.

***** Percent complete: 20.0223 %
***** Current system time: Fri Jan 31 23:17:51 2020
***** Estimated time to completion: 12 sec.

***** Percent complete: 21.0223 %
***** Current system time: Fri Jan 31 23:17:51 2020
***** Estimated time to completion: 12 sec.

***** Percent complete: 22.0224 %
***** Current system time: Fri Jan 31 23:17:52 2020
***** Estimated time to completion: 12 sec.

***** Percent complete: 23.0254 %
***** Current system time: Fri Jan 31 23:17:52 2020
***** Estimated time to completion: 12 sec.

***** Percent complete: 24.0257 %
***** Current system time: Fri Jan 31 23:17:52 2020
***** Estimated time to completion: 11 sec.

***** Percent complete: 25.0266 %
***** Current system time: Fri Jan 31 23:17:52 2020
***** Estimated time to completion: 11 sec.

***** Percent complete: 26.0291 %
***** Current system time: Fri Jan 31 23:17:52 2020
***** Estimated time to completion: 11 sec.

***** Percent complete: 27.0318 %
***** Current system time: Fri Jan 31 23:17:52 2020
***** Estimated time to completion: 11 sec.

***** Percent complete: 28.0327 %
***** Current system time: Fri Jan 31 23:17:52 2020
***** Estimated time to completion: 11 sec.

***** Percent complete: 29.0338 %
***** Current system time: Fri Jan 31 23:17:53 2020
***** Estimated time to completion: 10 sec.

***** Percent complete: 30.0378 %
***** Current system time: Fri Jan 31 23:17:53 2020
***** Estimated time to completion: 10 sec.

***** Percent complete: 31.0387 %
***** Current system time: Fri Jan 31 23:17:53 2020
***** Estimated time to completion: 10 sec.

***** Percent complete: 32.0396 %
***** Current system time: Fri Jan 31 23:17:53 2020
***** Estimated time to completion: 10 sec.

***** Percent complete: 33.0405 %
***** Current system time: Fri Jan 31 23:17:53 2020
***** Estimated time to completion: 10 sec.

***** Percent complete: 34.0414 %
***** Current system time: Fri Jan 31 23:17:53 2020
***** Estimated time to completion:  9 sec.

***** Percent complete: 35.0423 %
***** Current system time: Fri Jan 31 23:17:53 2020
***** Estimated time to completion:  9 sec.

***** Percent complete: 36.0433 %
***** Current system time: Fri Jan 31 23:17:54 2020
***** Estimated time to completion:  9 sec.

***** Percent complete: 37.0442 %
***** Current system time: Fri Jan 31 23:17:54 2020
***** Estimated time to completion:  9 sec.

***** Percent complete: 38.0451 %
***** Current system time: Fri Jan 31 23:17:54 2020
***** Estimated time to completion:  9 sec.

***** Percent complete: 39.046 %
***** Current system time: Fri Jan 31 23:17:54 2020
***** Estimated time to completion:  9 sec.

***** Percent complete: 40.0469 %
***** Current system time: Fri Jan 31 23:17:54 2020
***** Estimated time to completion:  9 sec.

***** Percent complete: 41.0478 %
***** Current system time: Fri Jan 31 23:17:54 2020
***** Estimated time to completion:  8 sec.

***** Percent complete: 42.0488 %
***** Current system time: Fri Jan 31 23:17:54 2020
***** Estimated time to completion:  8 sec.

***** Percent complete: 43.0497 %
***** Current system time: Fri Jan 31 23:17:55 2020
***** Estimated time to completion:  8 sec.

***** Percent complete: 44.0506 %
***** Current system time: Fri Jan 31 23:17:55 2020
***** Estimated time to completion:  8 sec.

***** Percent complete: 45.0515 %
***** Current system time: Fri Jan 31 23:17:55 2020
***** Estimated time to completion:  8 sec.

***** Percent complete: 46.0524 %
***** Current system time: Fri Jan 31 23:17:55 2020
***** Estimated time to completion:  8 sec.

***** Percent complete: 47.0534 %
***** Current system time: Fri Jan 31 23:17:55 2020
***** Estimated time to completion:  7 sec.

***** Percent complete: 48.0543 %
***** Current system time: Fri Jan 31 23:17:55 2020
***** Estimated time to completion:  7 sec.

***** Percent complete: 49.0552 %
***** Current system time: Fri Jan 31 23:17:56 2020
***** Estimated time to completion:  7 sec.

***** Percent complete: 50.0561 %
***** Current system time: Fri Jan 31 23:17:56 2020
***** Estimated time to completion:  7 sec.

***** Percent complete: 51.057 %
***** Current system time: Fri Jan 31 23:17:56 2020
***** Estimated time to completion:  7 sec.

***** Percent complete: 52.0579 %
***** Current system time: Fri Jan 31 23:17:56 2020
***** Estimated time to completion:  7 sec.

***** Percent complete: 53.0589 %
***** Current system time: Fri Jan 31 23:17:56 2020
***** Estimated time to completion:  7 sec.

***** Percent complete: 54.0598 %
***** Current system time: Fri Jan 31 23:17:56 2020
***** Estimated time to completion:  6 sec.

***** Percent complete: 55.0607 %
***** Current system time: Fri Jan 31 23:17:56 2020
***** Estimated time to completion:  6 sec.

***** Percent complete: 56.0616 %
***** Current system time: Fri Jan 31 23:17:57 2020
***** Estimated time to completion:  6 sec.

***** Percent complete: 57.0625 %
***** Current system time: Fri Jan 31 23:17:57 2020
***** Estimated time to completion:  6 sec.

***** Percent complete: 58.0635 %
***** Current system time: Fri Jan 31 23:17:57 2020
***** Estimated time to completion:  6 sec.

***** Percent complete: 59.0644 %
***** Current system time: Fri Jan 31 23:17:57 2020
***** Estimated time to completion:  6 sec.

***** Percent complete: 60.0653 %
***** Current system time: Fri Jan 31 23:17:57 2020
***** Estimated time to completion:  5 sec.

***** Percent complete: 61.0662 %
***** Current system time: Fri Jan 31 23:17:57 2020
***** Estimated time to completion:  5 sec.

***** Percent complete: 62.0671 %
***** Current system time: Fri Jan 31 23:17:57 2020
***** Estimated time to completion:  5 sec.

***** Percent complete: 63.068 %
***** Current system time: Fri Jan 31 23:17:58 2020
***** Estimated time to completion:  5 sec.

***** Percent complete: 64.069 %
***** Current system time: Fri Jan 31 23:17:58 2020
***** Estimated time to completion:  5 sec.

***** Percent complete: 65.0717 %
***** Current system time: Fri Jan 31 23:17:58 2020
***** Estimated time to completion:  5 sec.

***** Percent complete: 66.0735 %
***** Current system time: Fri Jan 31 23:17:58 2020
***** Estimated time to completion:  5 sec.

***** Percent complete: 67.074 %
***** Current system time: Fri Jan 31 23:17:58 2020
***** Estimated time to completion:  4 sec.

***** Percent complete: 68.0761 %
***** Current system time: Fri Jan 31 23:17:58 2020
***** Estimated time to completion:  4 sec.

***** Percent complete: 69.0779 %
***** Current system time: Fri Jan 31 23:17:58 2020
***** Estimated time to completion:  4 sec.

***** Percent complete: 70.0804 %
***** Current system time: Fri Jan 31 23:17:59 2020
***** Estimated time to completion:  4 sec.

***** Percent complete: 71.0805 %
***** Current system time: Fri Jan 31 23:17:59 2020
***** Estimated time to completion:  4 sec.

***** Percent complete: 72.0827 %
***** Current system time: Fri Jan 31 23:17:59 2020
***** Estimated time to completion:  4 sec.

***** Percent complete: 73.0836 %
***** Current system time: Fri Jan 31 23:17:59 2020
***** Estimated time to completion:  4 sec.

***** Percent complete: 74.0837 %
***** Current system time: Fri Jan 31 23:17:59 2020
***** Estimated time to completion:  3 sec.

***** Percent complete: 75.0846 %
***** Current system time: Fri Jan 31 23:17:59 2020
***** Estimated time to completion:  3 sec.

***** Percent complete: 76.0872 %
***** Current system time: Fri Jan 31 23:17:59 2020
***** Estimated time to completion:  3 sec.

***** Percent complete: 77.0898 %
***** Current system time: Fri Jan 31 23:18:00 2020
***** Estimated time to completion:  3 sec.

***** Percent complete: 78.0907 %
***** Current system time: Fri Jan 31 23:18:00 2020
***** Estimated time to completion:  3 sec.

***** Percent complete: 79.092 %
***** Current system time: Fri Jan 31 23:18:00 2020
***** Estimated time to completion:  3 sec.

***** Percent complete: 80.0959 %
***** Current system time: Fri Jan 31 23:18:00 2020
***** Estimated time to completion:  2 sec.

***** Percent complete: 81.0968 %
***** Current system time: Fri Jan 31 23:18:00 2020
***** Estimated time to completion:  2 sec.

***** Percent complete: 82.0977 %
***** Current system time: Fri Jan 31 23:18:00 2020
***** Estimated time to completion:  2 sec.

***** Percent complete: 83.0986 %
***** Current system time: Fri Jan 31 23:18:00 2020
***** Estimated time to completion:  2 sec.

***** Percent complete: 84.0995 %
***** Current system time: Fri Jan 31 23:18:01 2020
***** Estimated time to completion:  2 sec.

***** Percent complete: 85.1004 %
***** Current system time: Fri Jan 31 23:18:01 2020
***** Estimated time to completion:  2 sec.

***** Percent complete: 86.1014 %
***** Current system time: Fri Jan 31 23:18:01 2020
***** Estimated time to completion:  2 sec.

***** Percent complete: 87.1023 %
***** Current system time: Fri Jan 31 23:18:01 2020
***** Estimated time to completion:  1 sec.

***** Percent complete: 88.1032 %
***** Current system time: Fri Jan 31 23:18:01 2020
***** Estimated time to completion:  1 sec.

***** Percent complete: 89.1041 %
***** Current system time: Fri Jan 31 23:18:01 2020
***** Estimated time to completion:  1 sec.

***** Percent complete: 90.105 %
***** Current system time: Fri Jan 31 23:18:01 2020
***** Estimated time to completion:  1 sec.

***** Percent complete: 91.106 %
***** Current system time: Fri Jan 31 23:18:02 2020
***** Estimated time to completion:  1 sec.

***** Percent complete: 92.1069 %
***** Current system time: Fri Jan 31 23:18:02 2020
***** Estimated time to completion:  1 sec.

***** Percent complete: 93.1078 %
***** Current system time: Fri Jan 31 23:18:02 2020
***** Estimated time to completion:  1 sec.

***** Percent complete: 94.1087 %
***** Current system time: Fri Jan 31 23:18:02 2020
***** Estimated time to completion:  0 sec.

***** Percent complete: 95.1096 %
***** Current system time: Fri Jan 31 23:18:02 2020
***** Estimated time to completion:  0 sec.

***** Percent complete: 96.1105 %
***** Current system time: Fri Jan 31 23:18:02 2020
***** Estimated time to completion:  0 sec.

***** Percent complete: 97.1115 %
***** Current system time: Fri Jan 31 23:18:02 2020
***** Estimated time to completion:  0 sec.

***** Percent complete: 98.1124 %
***** Current system time: Fri Jan 31 23:18:03 2020
***** Estimated time to completion:  0 sec.

***** Percent complete: 99.1133 %
***** Current system time: Fri Jan 31 23:18:03 2020
***** Estimated time to completion:  0 sec.

***** Problem read in and set up time: 0.043925 seconds
 ***** DCOP time: 0.172451 seconds.  Breakdown follows:
	Number Successful Steps Taken:		1
	Number Failed Steps Attempted:		0
	Number Jacobians Evaluated:		371
	Number Iteration Matrix Factorizations:	0
	Number Linear Solves:			371
	Number Failed Linear Solves:		0
	Number Residual Evaluations:		397
	Number Nonlinear Convergence Failures:	0
	Total Residual Load Time:		0.088558 seconds
	Total Jacobian Load Time:		0.00984693 seconds
	Total Linear Solution Time:		0.0349941 seconds

 ***** Transient Stepping time: 14.552 seconds.  Breakdown follows:
	Number Successful Steps Taken:		24179
	Number Failed Steps Attempted:		0
	Number Jacobians Evaluated:		24285
	Number Iteration Matrix Factorizations:	0
	Number Linear Solves:			24285
	Number Failed Linear Solves:		0
	Number Residual Evaluations:		48464
	Number Nonlinear Convergence Failures:	0
	Total Residual Load Time:		10.4172 seconds
	Total Jacobian Load Time:		0.97673 seconds
	Total Linear Solution Time:		2.28954 seconds


***** Solution Summary *****
	Number Successful Steps Taken:		24180
	Number Failed Steps Attempted:		0
	Number Jacobians Evaluated:		24656
	Number Iteration Matrix Factorizations:	0
	Number Linear Solves:			24656
	Number Failed Linear Solves:		0
	Number Residual Evaluations:		48861
	Number Nonlinear Convergence Failures:	0
	Total Residual Load Time:		10.5057 seconds
	Total Jacobian Load Time:		0.986577 seconds
	Total Linear Solution Time:		2.32454 seconds


 ***** Measure Functions ***** 

RISE_DELAY = 1.016490e-10 with trig time= 4.875947e-10 and targ time= 5.892437e-10
Measure Start Time= 0.000000e+00	Measure End Time= 2.407790e-09

FALL_DELAY = 1.092867e-10 with trig time= 1.691491e-09 and targ time= 1.800778e-09
Measure Start Time= 0.000000e+00	Measure End Time= 2.407790e-09

RISE_SLEW = 8.980176e-11 with trig time= 5.577648e-10 and targ time= 6.475665e-10
Measure Start Time= 0.000000e+00	Measure End Time= 2.407790e-09

FALL_SLEW = 7.390377e-11 with trig time= 1.770922e-09 and targ time= 1.844825e-09
Measure Start Time= 0.000000e+00	Measure End Time= 2.407790e-09


***** Total Simulation Solvers Run Time: 14.7251 seconds
***** Total Elapsed Run Time:            14.769 seconds
*****
***** End of Xyce(TM) Simulation
*****

Timing summary of 1 processor
                 Stats                   Count       CPU Time              Wall Time
---------------------------------------- ----- --------------------- ---------------------
Xyce                                         1       14.594 (100.0%)       14.771 (100.0%)
  Analysis                                   1       14.555 (99.73%)       14.725 (99.69%)
    Transient                                1       14.555 (99.73%)       14.725 (99.69%)
      Nonlinear Solve                    24180       14.080 (96.48%)       14.198 (96.12%)
        Residual                         48861       10.502 (71.96%)       10.551 (71.43%)
        Jacobian                         24656        0.996 ( 6.82%)        1.009 ( 6.83%)
        Linear Solve                     24656        2.322 (15.91%)        2.346 (15.88%)
      Successful DCOP Steps                  1        0.000 (<0.01%)        0.000 (<0.01%)
      Successful Step                    24179        0.299 ( 2.05%)        0.310 ( 2.10%)
  Netlist Import                             1        0.034 ( 0.24%)        0.039 ( 0.26%)
    Parse Context                            1        0.012 ( 0.08%)        0.014 ( 0.10%)
    Distribute Devices                       1        0.019 ( 0.13%)        0.020 ( 0.13%)
    Verify Devices                           1        0.000 (<0.01%)        0.000 (<0.01%)
    Instantiate                              1        0.003 ( 0.02%)        0.003 ( 0.02%)
  Late Initialization                        1        0.003 ( 0.02%)        0.004 ( 0.03%)
    Global Indices                           1        0.002 ( 0.01%)        0.002 ( 0.01%)
  Setup Matrix Structure                     1        0.001 (<0.01%)        0.001 (<0.01%)

