
*****
***** Welcome to the Xyce(TM) Parallel Electronic Simulator
*****
***** This is version Xyce Release 6.12-opensource
***** Date: Fri Jan 31 23:18:35 PST 2020


***** Executing netlist spice_decks.tau2020_testsuite0131/net_6.sp

***** Reading and parsing netlist...
Netlist warning: No print specified
Netlist warning in file
 ../../ASAP7_PDKandLIB_v1p6/asap7PDK_r1p6/models/hspice/7nm_TT.pm.modified at
 or near line 68
 No model parameter VERSION found for model NMOS_RVT of type NMOS, parameter
 ignored.
Netlist warning in file
 ../../ASAP7_PDKandLIB_v1p6/asap7PDK_r1p6/models/hspice/7nm_TT.pm.modified at
 or near line 68
 Device model NMOS_RVT: ADMSbsimcmg: Parameter EOTACC value 1e-10 out of range
 [ 0.1*1.0e-9,  (+inf) [
Netlist warning in file
 ../../ASAP7_PDKandLIB_v1p6/asap7PDK_r1p6/models/hspice/7nm_TT.pm.modified at
 or near line 324
 No model parameter VERSION found for model PMOS_RVT of type PMOS, parameter
 ignored.
***** Setting up topology...

Netlist warning: Voltage Node (XI13:N_NOXREF_8_1) does not have a DC path to
 ground
Netlist warning: Voltage Node (XI13:N_NOXREF_5_1) does not have a DC path to
 ground
Netlist warning: Voltage Node (XI14:N_NOXREF_7_1) does not have a DC path to
 ground
Netlist warning: Voltage Node (XI14:N_NOXREF_6_1) does not have a DC path to
 ground
Netlist warning: Voltage Node (XI14:N_NOXREF_9_1) does not have a DC path to
 ground
Netlist warning: Voltage Node (XI14:N_NOXREF_8_1) does not have a DC path to
 ground
Netlist warning: Voltage Node (XI13:N_NOXREF_6_1) does not have a DC path to
 ground
Netlist warning: Voltage Node (XI13:N_NOXREF_7_1) does not have a DC path to
 ground
Netlist warning: Voltage Node (XI14:N_A) does not have a DC path to ground
***** Device Count Summary ...
       C level 1 (Capacitor)                  168
       m level 107 (BSIM-CMG FINFET v107.0.0)  26
       R level 1 (Resistor)                   236
       V level 1 (Independent Voltage Source)   3
       ------------------------------------------
       Total Devices                          433
***** Setting up matrix structure...
***** Number of Unknowns = 294
***** Initializing...

***** Beginning DC Operating Point Calculation...

***** Beginning Transient Calculation...

***** Percent complete: 1.00021 %
***** Current system time: Fri Jan 31 23:18:36 2020
***** Estimated time to completion: 26 sec.

***** Percent complete: 2.00042 %
***** Current system time: Fri Jan 31 23:18:36 2020
***** Estimated time to completion: 18 sec.

***** Percent complete: 3.00064 %
***** Current system time: Fri Jan 31 23:18:36 2020
***** Estimated time to completion: 16 sec.

***** Percent complete: 4.00085 %
***** Current system time: Fri Jan 31 23:18:36 2020
***** Estimated time to completion: 14 sec.

***** Percent complete: 5.00106 %
***** Current system time: Fri Jan 31 23:18:36 2020
***** Estimated time to completion: 13 sec.

***** Percent complete: 6.00127 %
***** Current system time: Fri Jan 31 23:18:36 2020
***** Estimated time to completion: 13 sec.

***** Percent complete: 7.00148 %
***** Current system time: Fri Jan 31 23:18:36 2020
***** Estimated time to completion: 12 sec.

***** Percent complete: 8.0017 %
***** Current system time: Fri Jan 31 23:18:37 2020
***** Estimated time to completion: 12 sec.

***** Percent complete: 9.00191 %
***** Current system time: Fri Jan 31 23:18:37 2020
***** Estimated time to completion: 11 sec.

***** Percent complete: 10.0021 %
***** Current system time: Fri Jan 31 23:18:37 2020
***** Estimated time to completion: 11 sec.

***** Percent complete: 11.0023 %
***** Current system time: Fri Jan 31 23:18:37 2020
***** Estimated time to completion: 11 sec.

***** Percent complete: 12.0025 %
***** Current system time: Fri Jan 31 23:18:37 2020
***** Estimated time to completion: 11 sec.

***** Percent complete: 13.0028 %
***** Current system time: Fri Jan 31 23:18:37 2020
***** Estimated time to completion: 10 sec.

***** Percent complete: 14.0043 %
***** Current system time: Fri Jan 31 23:18:37 2020
***** Estimated time to completion: 10 sec.

***** Percent complete: 15.0057 %
***** Current system time: Fri Jan 31 23:18:37 2020
***** Estimated time to completion: 10 sec.

***** Percent complete: 16.0091 %
***** Current system time: Fri Jan 31 23:18:37 2020
***** Estimated time to completion: 10 sec.

***** Percent complete: 17.0102 %
***** Current system time: Fri Jan 31 23:18:38 2020
***** Estimated time to completion: 10 sec.

***** Percent complete: 18.0138 %
***** Current system time: Fri Jan 31 23:18:38 2020
***** Estimated time to completion: 10 sec.

***** Percent complete: 19.014 %
***** Current system time: Fri Jan 31 23:18:38 2020
***** Estimated time to completion:  9 sec.

***** Percent complete: 20.0158 %
***** Current system time: Fri Jan 31 23:18:38 2020
***** Estimated time to completion:  9 sec.

***** Percent complete: 21.0166 %
***** Current system time: Fri Jan 31 23:18:38 2020
***** Estimated time to completion:  9 sec.

***** Percent complete: 22.0181 %
***** Current system time: Fri Jan 31 23:18:38 2020
***** Estimated time to completion:  9 sec.

***** Percent complete: 23.0183 %
***** Current system time: Fri Jan 31 23:18:38 2020
***** Estimated time to completion:  9 sec.

***** Percent complete: 24.0199 %
***** Current system time: Fri Jan 31 23:18:38 2020
***** Estimated time to completion:  9 sec.

***** Percent complete: 25.0218 %
***** Current system time: Fri Jan 31 23:18:39 2020
***** Estimated time to completion:  9 sec.

***** Percent complete: 26.022 %
***** Current system time: Fri Jan 31 23:18:39 2020
***** Estimated time to completion:  9 sec.

***** Percent complete: 27.025 %
***** Current system time: Fri Jan 31 23:18:39 2020
***** Estimated time to completion:  8 sec.

***** Percent complete: 28.0252 %
***** Current system time: Fri Jan 31 23:18:39 2020
***** Estimated time to completion:  8 sec.

***** Percent complete: 29.0255 %
***** Current system time: Fri Jan 31 23:18:39 2020
***** Estimated time to completion:  8 sec.

***** Percent complete: 30.0257 %
***** Current system time: Fri Jan 31 23:18:39 2020
***** Estimated time to completion:  8 sec.

***** Percent complete: 31.0259 %
***** Current system time: Fri Jan 31 23:18:39 2020
***** Estimated time to completion:  8 sec.

***** Percent complete: 32.0261 %
***** Current system time: Fri Jan 31 23:18:39 2020
***** Estimated time to completion:  8 sec.

***** Percent complete: 33.0263 %
***** Current system time: Fri Jan 31 23:18:39 2020
***** Estimated time to completion:  8 sec.

***** Percent complete: 34.0265 %
***** Current system time: Fri Jan 31 23:18:40 2020
***** Estimated time to completion:  7 sec.

***** Percent complete: 35.0267 %
***** Current system time: Fri Jan 31 23:18:40 2020
***** Estimated time to completion:  7 sec.

***** Percent complete: 36.0269 %
***** Current system time: Fri Jan 31 23:18:40 2020
***** Estimated time to completion:  7 sec.

***** Percent complete: 37.0272 %
***** Current system time: Fri Jan 31 23:18:40 2020
***** Estimated time to completion:  7 sec.

***** Percent complete: 38.0274 %
***** Current system time: Fri Jan 31 23:18:40 2020
***** Estimated time to completion:  7 sec.

***** Percent complete: 39.0276 %
***** Current system time: Fri Jan 31 23:18:40 2020
***** Estimated time to completion:  7 sec.

***** Percent complete: 40.0278 %
***** Current system time: Fri Jan 31 23:18:40 2020
***** Estimated time to completion:  7 sec.

***** Percent complete: 41.028 %
***** Current system time: Fri Jan 31 23:18:40 2020
***** Estimated time to completion:  7 sec.

***** Percent complete: 42.0282 %
***** Current system time: Fri Jan 31 23:18:40 2020
***** Estimated time to completion:  6 sec.

***** Percent complete: 43.0284 %
***** Current system time: Fri Jan 31 23:18:41 2020
***** Estimated time to completion:  6 sec.

***** Percent complete: 44.0286 %
***** Current system time: Fri Jan 31 23:18:41 2020
***** Estimated time to completion:  6 sec.

***** Percent complete: 45.0289 %
***** Current system time: Fri Jan 31 23:18:41 2020
***** Estimated time to completion:  6 sec.

***** Percent complete: 46.0291 %
***** Current system time: Fri Jan 31 23:18:41 2020
***** Estimated time to completion:  6 sec.

***** Percent complete: 47.0293 %
***** Current system time: Fri Jan 31 23:18:41 2020
***** Estimated time to completion:  6 sec.

***** Percent complete: 48.0295 %
***** Current system time: Fri Jan 31 23:18:41 2020
***** Estimated time to completion:  6 sec.

***** Percent complete: 49.0297 %
***** Current system time: Fri Jan 31 23:18:41 2020
***** Estimated time to completion:  6 sec.

***** Percent complete: 50.0299 %
***** Current system time: Fri Jan 31 23:18:41 2020
***** Estimated time to completion:  5 sec.

***** Percent complete: 51.0301 %
***** Current system time: Fri Jan 31 23:18:42 2020
***** Estimated time to completion:  5 sec.

***** Percent complete: 52.0303 %
***** Current system time: Fri Jan 31 23:18:42 2020
***** Estimated time to completion:  5 sec.

***** Percent complete: 53.0306 %
***** Current system time: Fri Jan 31 23:18:42 2020
***** Estimated time to completion:  5 sec.

***** Percent complete: 54.0308 %
***** Current system time: Fri Jan 31 23:18:42 2020
***** Estimated time to completion:  5 sec.

***** Percent complete: 55.031 %
***** Current system time: Fri Jan 31 23:18:42 2020
***** Estimated time to completion:  5 sec.

***** Percent complete: 56.0312 %
***** Current system time: Fri Jan 31 23:18:42 2020
***** Estimated time to completion:  5 sec.

***** Percent complete: 57.0314 %
***** Current system time: Fri Jan 31 23:18:42 2020
***** Estimated time to completion:  5 sec.

***** Percent complete: 58.0316 %
***** Current system time: Fri Jan 31 23:18:42 2020
***** Estimated time to completion:  4 sec.

***** Percent complete: 59.0318 %
***** Current system time: Fri Jan 31 23:18:42 2020
***** Estimated time to completion:  4 sec.

***** Percent complete: 60.032 %
***** Current system time: Fri Jan 31 23:18:43 2020
***** Estimated time to completion:  4 sec.

***** Percent complete: 61.0322 %
***** Current system time: Fri Jan 31 23:18:43 2020
***** Estimated time to completion:  4 sec.

***** Percent complete: 62.0325 %
***** Current system time: Fri Jan 31 23:18:43 2020
***** Estimated time to completion:  4 sec.

***** Percent complete: 63.0327 %
***** Current system time: Fri Jan 31 23:18:43 2020
***** Estimated time to completion:  4 sec.

***** Percent complete: 64.0366 %
***** Current system time: Fri Jan 31 23:18:43 2020
***** Estimated time to completion:  4 sec.

***** Percent complete: 65.0377 %
***** Current system time: Fri Jan 31 23:18:43 2020
***** Estimated time to completion:  4 sec.

***** Percent complete: 66.0412 %
***** Current system time: Fri Jan 31 23:18:43 2020
***** Estimated time to completion:  3 sec.

***** Percent complete: 67.0423 %
***** Current system time: Fri Jan 31 23:18:43 2020
***** Estimated time to completion:  3 sec.

***** Percent complete: 68.0458 %
***** Current system time: Fri Jan 31 23:18:43 2020
***** Estimated time to completion:  3 sec.

***** Percent complete: 69.046 %
***** Current system time: Fri Jan 31 23:18:44 2020
***** Estimated time to completion:  3 sec.

***** Percent complete: 70.048 %
***** Current system time: Fri Jan 31 23:18:44 2020
***** Estimated time to completion:  3 sec.

***** Percent complete: 71.0487 %
***** Current system time: Fri Jan 31 23:18:44 2020
***** Estimated time to completion:  3 sec.

***** Percent complete: 72.0503 %
***** Current system time: Fri Jan 31 23:18:44 2020
***** Estimated time to completion:  3 sec.

***** Percent complete: 73.0505 %
***** Current system time: Fri Jan 31 23:18:44 2020
***** Estimated time to completion:  3 sec.

***** Percent complete: 74.0521 %
***** Current system time: Fri Jan 31 23:18:44 2020
***** Estimated time to completion:  3 sec.

***** Percent complete: 75.0542 %
***** Current system time: Fri Jan 31 23:18:44 2020
***** Estimated time to completion:  2 sec.

***** Percent complete: 76.0544 %
***** Current system time: Fri Jan 31 23:18:44 2020
***** Estimated time to completion:  2 sec.

***** Percent complete: 77.0573 %
***** Current system time: Fri Jan 31 23:18:44 2020
***** Estimated time to completion:  2 sec.

***** Percent complete: 78.0576 %
***** Current system time: Fri Jan 31 23:18:45 2020
***** Estimated time to completion:  2 sec.

***** Percent complete: 79.0578 %
***** Current system time: Fri Jan 31 23:18:45 2020
***** Estimated time to completion:  2 sec.

***** Percent complete: 80.058 %
***** Current system time: Fri Jan 31 23:18:45 2020
***** Estimated time to completion:  2 sec.

***** Percent complete: 81.0582 %
***** Current system time: Fri Jan 31 23:18:45 2020
***** Estimated time to completion:  2 sec.

***** Percent complete: 82.0584 %
***** Current system time: Fri Jan 31 23:18:45 2020
***** Estimated time to completion:  2 sec.

***** Percent complete: 83.0586 %
***** Current system time: Fri Jan 31 23:18:45 2020
***** Estimated time to completion:  1 sec.

***** Percent complete: 84.0588 %
***** Current system time: Fri Jan 31 23:18:45 2020
***** Estimated time to completion:  1 sec.

***** Percent complete: 85.059 %
***** Current system time: Fri Jan 31 23:18:45 2020
***** Estimated time to completion:  1 sec.

***** Percent complete: 86.0593 %
***** Current system time: Fri Jan 31 23:18:46 2020
***** Estimated time to completion:  1 sec.

***** Percent complete: 87.0595 %
***** Current system time: Fri Jan 31 23:18:46 2020
***** Estimated time to completion:  1 sec.

***** Percent complete: 88.0597 %
***** Current system time: Fri Jan 31 23:18:46 2020
***** Estimated time to completion:  1 sec.

***** Percent complete: 89.0599 %
***** Current system time: Fri Jan 31 23:18:46 2020
***** Estimated time to completion:  1 sec.

***** Percent complete: 90.0601 %
***** Current system time: Fri Jan 31 23:18:46 2020
***** Estimated time to completion:  1 sec.

***** Percent complete: 91.0603 %
***** Current system time: Fri Jan 31 23:18:46 2020
***** Estimated time to completion:  1 sec.

***** Percent complete: 92.0605 %
***** Current system time: Fri Jan 31 23:18:46 2020
***** Estimated time to completion:  0 sec.

***** Percent complete: 93.0607 %
***** Current system time: Fri Jan 31 23:18:46 2020
***** Estimated time to completion:  0 sec.

***** Percent complete: 94.061 %
***** Current system time: Fri Jan 31 23:18:46 2020
***** Estimated time to completion:  0 sec.

***** Percent complete: 95.0612 %
***** Current system time: Fri Jan 31 23:18:47 2020
***** Estimated time to completion:  0 sec.

***** Percent complete: 96.0614 %
***** Current system time: Fri Jan 31 23:18:47 2020
***** Estimated time to completion:  0 sec.

***** Percent complete: 97.0616 %
***** Current system time: Fri Jan 31 23:18:47 2020
***** Estimated time to completion:  0 sec.

***** Percent complete: 98.0618 %
***** Current system time: Fri Jan 31 23:18:47 2020
***** Estimated time to completion:  0 sec.

***** Percent complete: 99.062 %
***** Current system time: Fri Jan 31 23:18:47 2020
***** Estimated time to completion:  0 sec.

***** Problem read in and set up time: 0.048969 seconds
 ***** DCOP time: 0.155911 seconds.  Breakdown follows:
	Number Successful Steps Taken:		1
	Number Failed Steps Attempted:		0
	Number Jacobians Evaluated:		372
	Number Iteration Matrix Factorizations:	0
	Number Linear Solves:			372
	Number Failed Linear Solves:		0
	Number Residual Evaluations:		391
	Number Nonlinear Convergence Failures:	0
	Total Residual Load Time:		0.0777702 seconds
	Total Jacobian Load Time:		0.00912619 seconds
	Total Linear Solution Time:		0.032393 seconds

 ***** Transient Stepping time: 11.4773 seconds.  Breakdown follows:
	Number Successful Steps Taken:		21796
	Number Failed Steps Attempted:		0
	Number Jacobians Evaluated:		21878
	Number Iteration Matrix Factorizations:	0
	Number Linear Solves:			21878
	Number Failed Linear Solves:		0
	Number Residual Evaluations:		43674
	Number Nonlinear Convergence Failures:	0
	Total Residual Load Time:		8.04789 seconds
	Total Jacobian Load Time:		0.7792 seconds
	Total Linear Solution Time:		1.86534 seconds


***** Solution Summary *****
	Number Successful Steps Taken:		21797
	Number Failed Steps Attempted:		0
	Number Jacobians Evaluated:		22250
	Number Iteration Matrix Factorizations:	0
	Number Linear Solves:			22250
	Number Failed Linear Solves:		0
	Number Residual Evaluations:		44065
	Number Nonlinear Convergence Failures:	0
	Total Residual Load Time:		8.12566 seconds
	Total Jacobian Load Time:		0.788327 seconds
	Total Linear Solution Time:		1.89773 seconds


 ***** Measure Functions ***** 

FALL_DELAY = 6.349651e-11 with trig time= 4.050748e-10 and targ time= 4.685713e-10
Measure Start Time= 0.000000e+00	Measure End Time= 2.169540e-09

RISE_DELAY = 7.580131e-11 with trig time= 1.489843e-09 and targ time= 1.565645e-09
Measure Start Time= 0.000000e+00	Measure End Time= 2.169540e-09

RISE_SLEW = 9.320411e-11 with trig time= 1.516525e-09 and targ time= 1.609729e-09
Measure Start Time= 0.000000e+00	Measure End Time= 2.169540e-09

FALL_SLEW = 7.721044e-11 with trig time= 4.256856e-10 and targ time= 5.028960e-10
Measure Start Time= 0.000000e+00	Measure End Time= 2.169540e-09


***** Total Simulation Solvers Run Time: 11.634 seconds
***** Total Elapsed Run Time:            11.683 seconds
*****
***** End of Xyce(TM) Simulation
*****

Timing summary of 1 processor
                 Stats                   Count       CPU Time              Wall Time
---------------------------------------- ----- --------------------- ---------------------
Xyce                                         1       11.523 (100.0%)       11.684 (100.0%)
  Analysis                                   1       11.479 (99.62%)       11.633 (99.56%)
    Transient                                1       11.479 (99.62%)       11.633 (99.56%)
      Nonlinear Solve                    21797       11.037 (95.79%)       11.163 (95.54%)
        Residual                         44065        8.115 (70.43%)        8.170 (69.92%)
        Jacobian                         22250        0.795 ( 6.90%)        0.810 ( 6.93%)
        Linear Solve                     22250        1.892 (16.42%)        1.917 (16.41%)
      Successful DCOP Steps                  1        0.000 (<0.01%)        0.000 (<0.01%)
      Successful Step                    21796        0.282 ( 2.45%)        0.293 ( 2.50%)
  Netlist Import                             1        0.039 ( 0.34%)        0.043 ( 0.37%)
    Parse Context                            1        0.016 ( 0.14%)        0.018 ( 0.16%)
    Distribute Devices                       1        0.019 ( 0.17%)        0.021 ( 0.18%)
    Verify Devices                           1        0.000 (<0.01%)        0.000 (<0.01%)
    Instantiate                              1        0.003 ( 0.02%)        0.003 ( 0.02%)
  Late Initialization                        1        0.003 ( 0.03%)        0.003 ( 0.03%)
    Global Indices                           1        0.001 ( 0.01%)        0.001 ( 0.01%)
  Setup Matrix Structure                     1        0.001 (<0.01%)        0.001 (<0.01%)

