
*****
***** Welcome to the Xyce(TM) Parallel Electronic Simulator
*****
***** This is version Xyce Release 6.12-opensource
***** Date: Fri Jan 31 23:16:57 PST 2020


***** Executing netlist spice_decks.tau2020_testsuite0131/net_1.sp

***** Reading and parsing netlist...
Netlist warning: No print specified
Netlist warning in file
 ../../ASAP7_PDKandLIB_v1p6/asap7PDK_r1p6/models/hspice/7nm_TT.pm.modified at
 or near line 68
 No model parameter VERSION found for model NMOS_RVT of type NMOS, parameter
 ignored.
Netlist warning in file
 ../../ASAP7_PDKandLIB_v1p6/asap7PDK_r1p6/models/hspice/7nm_TT.pm.modified at
 or near line 68
 Device model NMOS_RVT: ADMSbsimcmg: Parameter EOTACC value 1e-10 out of range
 [ 0.1*1.0e-9,  (+inf) [
Netlist warning in file
 ../../ASAP7_PDKandLIB_v1p6/asap7PDK_r1p6/models/hspice/7nm_TT.pm.modified at
 or near line 324
 No model parameter VERSION found for model PMOS_RVT of type PMOS, parameter
 ignored.
***** Setting up topology...

Netlist warning: Voltage Node (XI3:N_NOXREF_7_1) does not have a DC path to
 ground
Netlist warning: Voltage Node (XI3:N_NOXREF_6_1) does not have a DC path to
 ground
Netlist warning: Voltage Node (XI3:N_NOXREF_8_1) does not have a DC path to
 ground
Netlist warning: Voltage Node (XI3:N_NOXREF_9_1) does not have a DC path to
 ground
Netlist warning: Voltage Node (XI4:N_NOXREF_7_1) does not have a DC path to
 ground
Netlist warning: Voltage Node (XI4:N_NOXREF_6_1) does not have a DC path to
 ground
Netlist warning: Voltage Node (XI4:N_NOXREF_9_1) does not have a DC path to
 ground
Netlist warning: Voltage Node (XI4:N_NOXREF_8_1) does not have a DC path to
 ground
***** Device Count Summary ...
       C level 1 (Capacitor)                  313
       m level 107 (BSIM-CMG FINFET v107.0.0)  62
       R level 1 (Resistor)                   544
       V level 1 (Independent Voltage Source)   3
       ------------------------------------------
       Total Devices                          922
***** Setting up matrix structure...
***** Number of Unknowns = 659
***** Initializing...

***** Beginning DC Operating Point Calculation...

***** Beginning Transient Calculation...

***** Percent complete: 1.00171 %
***** Current system time: Fri Jan 31 23:16:58 2020
***** Estimated time to completion:  1 min., 10 sec.

***** Percent complete: 2.00343 %
***** Current system time: Fri Jan 31 23:16:58 2020
***** Estimated time to completion: 48 sec.

***** Percent complete: 3.00514 %
***** Current system time: Fri Jan 31 23:16:58 2020
***** Estimated time to completion: 41 sec.

***** Percent complete: 4.00685 %
***** Current system time: Fri Jan 31 23:16:59 2020
***** Estimated time to completion: 37 sec.

***** Percent complete: 5.00856 %
***** Current system time: Fri Jan 31 23:16:59 2020
***** Estimated time to completion: 35 sec.

***** Percent complete: 6.01028 %
***** Current system time: Fri Jan 31 23:16:59 2020
***** Estimated time to completion: 33 sec.

***** Percent complete: 7.01199 %
***** Current system time: Fri Jan 31 23:17:00 2020
***** Estimated time to completion: 31 sec.

***** Percent complete: 8.0137 %
***** Current system time: Fri Jan 31 23:17:00 2020
***** Estimated time to completion: 30 sec.

***** Percent complete: 9.01541 %
***** Current system time: Fri Jan 31 23:17:00 2020
***** Estimated time to completion: 29 sec.

***** Percent complete: 10.0171 %
***** Current system time: Fri Jan 31 23:17:00 2020
***** Estimated time to completion: 29 sec.

***** Percent complete: 11.0188 %
***** Current system time: Fri Jan 31 23:17:01 2020
***** Estimated time to completion: 28 sec.

***** Percent complete: 12.0206 %
***** Current system time: Fri Jan 31 23:17:01 2020
***** Estimated time to completion: 27 sec.

***** Percent complete: 13.0223 %
***** Current system time: Fri Jan 31 23:17:01 2020
***** Estimated time to completion: 27 sec.

***** Percent complete: 14.024 %
***** Current system time: Fri Jan 31 23:17:02 2020
***** Estimated time to completion: 26 sec.

***** Percent complete: 15.0257 %
***** Current system time: Fri Jan 31 23:17:02 2020
***** Estimated time to completion: 26 sec.

***** Percent complete: 16.0285 %
***** Current system time: Fri Jan 31 23:17:02 2020
***** Estimated time to completion: 25 sec.

***** Percent complete: 17.0309 %
***** Current system time: Fri Jan 31 23:17:02 2020
***** Estimated time to completion: 25 sec.

***** Percent complete: 18.0321 %
***** Current system time: Fri Jan 31 23:17:03 2020
***** Estimated time to completion: 25 sec.

***** Percent complete: 19.0327 %
***** Current system time: Fri Jan 31 23:17:03 2020
***** Estimated time to completion: 24 sec.

***** Percent complete: 20.0339 %
***** Current system time: Fri Jan 31 23:17:03 2020
***** Estimated time to completion: 24 sec.

***** Percent complete: 21.0346 %
***** Current system time: Fri Jan 31 23:17:04 2020
***** Estimated time to completion: 24 sec.

***** Percent complete: 22.038 %
***** Current system time: Fri Jan 31 23:17:04 2020
***** Estimated time to completion: 23 sec.

***** Percent complete: 23.0404 %
***** Current system time: Fri Jan 31 23:17:04 2020
***** Estimated time to completion: 23 sec.

***** Percent complete: 24.0421 %
***** Current system time: Fri Jan 31 23:17:04 2020
***** Estimated time to completion: 23 sec.

***** Percent complete: 25.0433 %
***** Current system time: Fri Jan 31 23:17:05 2020
***** Estimated time to completion: 22 sec.

***** Percent complete: 26.045 %
***** Current system time: Fri Jan 31 23:17:05 2020
***** Estimated time to completion: 22 sec.

***** Percent complete: 27.0451 %
***** Current system time: Fri Jan 31 23:17:05 2020
***** Estimated time to completion: 21 sec.

***** Percent complete: 28.0469 %
***** Current system time: Fri Jan 31 23:17:06 2020
***** Estimated time to completion: 21 sec.

***** Percent complete: 29.0487 %
***** Current system time: Fri Jan 31 23:17:06 2020
***** Estimated time to completion: 21 sec.

***** Percent complete: 30.0516 %
***** Current system time: Fri Jan 31 23:17:06 2020
***** Estimated time to completion: 20 sec.

***** Percent complete: 31.0519 %
***** Current system time: Fri Jan 31 23:17:06 2020
***** Estimated time to completion: 20 sec.

***** Percent complete: 32.0536 %
***** Current system time: Fri Jan 31 23:17:07 2020
***** Estimated time to completion: 20 sec.

***** Percent complete: 33.0553 %
***** Current system time: Fri Jan 31 23:17:07 2020
***** Estimated time to completion: 19 sec.

***** Percent complete: 34.057 %
***** Current system time: Fri Jan 31 23:17:07 2020
***** Estimated time to completion: 19 sec.

***** Percent complete: 35.0587 %
***** Current system time: Fri Jan 31 23:17:08 2020
***** Estimated time to completion: 19 sec.

***** Percent complete: 36.0604 %
***** Current system time: Fri Jan 31 23:17:08 2020
***** Estimated time to completion: 18 sec.

***** Percent complete: 37.0622 %
***** Current system time: Fri Jan 31 23:17:08 2020
***** Estimated time to completion: 18 sec.

***** Percent complete: 38.0639 %
***** Current system time: Fri Jan 31 23:17:08 2020
***** Estimated time to completion: 18 sec.

***** Percent complete: 39.0656 %
***** Current system time: Fri Jan 31 23:17:09 2020
***** Estimated time to completion: 18 sec.

***** Percent complete: 40.0673 %
***** Current system time: Fri Jan 31 23:17:09 2020
***** Estimated time to completion: 17 sec.

***** Percent complete: 41.069 %
***** Current system time: Fri Jan 31 23:17:09 2020
***** Estimated time to completion: 17 sec.

***** Percent complete: 42.0707 %
***** Current system time: Fri Jan 31 23:17:10 2020
***** Estimated time to completion: 17 sec.

***** Percent complete: 43.0724 %
***** Current system time: Fri Jan 31 23:17:10 2020
***** Estimated time to completion: 16 sec.

***** Percent complete: 44.0741 %
***** Current system time: Fri Jan 31 23:17:10 2020
***** Estimated time to completion: 16 sec.

***** Percent complete: 45.0759 %
***** Current system time: Fri Jan 31 23:17:10 2020
***** Estimated time to completion: 16 sec.

***** Percent complete: 46.0776 %
***** Current system time: Fri Jan 31 23:17:11 2020
***** Estimated time to completion: 15 sec.

***** Percent complete: 47.0793 %
***** Current system time: Fri Jan 31 23:17:11 2020
***** Estimated time to completion: 15 sec.

***** Percent complete: 48.081 %
***** Current system time: Fri Jan 31 23:17:11 2020
***** Estimated time to completion: 15 sec.

***** Percent complete: 49.0827 %
***** Current system time: Fri Jan 31 23:17:12 2020
***** Estimated time to completion: 15 sec.

***** Percent complete: 50.0844 %
***** Current system time: Fri Jan 31 23:17:12 2020
***** Estimated time to completion: 14 sec.

***** Percent complete: 51.0861 %
***** Current system time: Fri Jan 31 23:17:12 2020
***** Estimated time to completion: 14 sec.

***** Percent complete: 52.0878 %
***** Current system time: Fri Jan 31 23:17:13 2020
***** Estimated time to completion: 14 sec.

***** Percent complete: 53.0896 %
***** Current system time: Fri Jan 31 23:17:13 2020
***** Estimated time to completion: 13 sec.

***** Percent complete: 54.0913 %
***** Current system time: Fri Jan 31 23:17:13 2020
***** Estimated time to completion: 13 sec.

***** Percent complete: 55.093 %
***** Current system time: Fri Jan 31 23:17:13 2020
***** Estimated time to completion: 13 sec.

***** Percent complete: 56.0947 %
***** Current system time: Fri Jan 31 23:17:14 2020
***** Estimated time to completion: 12 sec.

***** Percent complete: 57.0964 %
***** Current system time: Fri Jan 31 23:17:14 2020
***** Estimated time to completion: 12 sec.

***** Percent complete: 58.0981 %
***** Current system time: Fri Jan 31 23:17:14 2020
***** Estimated time to completion: 12 sec.

***** Percent complete: 59.0998 %
***** Current system time: Fri Jan 31 23:17:15 2020
***** Estimated time to completion: 12 sec.

***** Percent complete: 60.1015 %
***** Current system time: Fri Jan 31 23:17:15 2020
***** Estimated time to completion: 11 sec.

***** Percent complete: 61.1033 %
***** Current system time: Fri Jan 31 23:17:15 2020
***** Estimated time to completion: 11 sec.

***** Percent complete: 62.105 %
***** Current system time: Fri Jan 31 23:17:15 2020
***** Estimated time to completion: 11 sec.

***** Percent complete: 63.1067 %
***** Current system time: Fri Jan 31 23:17:16 2020
***** Estimated time to completion: 10 sec.

***** Percent complete: 64.1084 %
***** Current system time: Fri Jan 31 23:17:16 2020
***** Estimated time to completion: 10 sec.

***** Percent complete: 65.1101 %
***** Current system time: Fri Jan 31 23:17:16 2020
***** Estimated time to completion: 10 sec.

***** Percent complete: 66.1111 %
***** Current system time: Fri Jan 31 23:17:17 2020
***** Estimated time to completion:  9 sec.

***** Percent complete: 67.1132 %
***** Current system time: Fri Jan 31 23:17:17 2020
***** Estimated time to completion:  9 sec.

***** Percent complete: 68.1145 %
***** Current system time: Fri Jan 31 23:17:17 2020
***** Estimated time to completion:  9 sec.

***** Percent complete: 69.115 %
***** Current system time: Fri Jan 31 23:17:17 2020
***** Estimated time to completion:  9 sec.

***** Percent complete: 70.1164 %
***** Current system time: Fri Jan 31 23:17:18 2020
***** Estimated time to completion:  8 sec.

***** Percent complete: 71.1169 %
***** Current system time: Fri Jan 31 23:17:18 2020
***** Estimated time to completion:  8 sec.

***** Percent complete: 72.1206 %
***** Current system time: Fri Jan 31 23:17:18 2020
***** Estimated time to completion:  8 sec.

***** Percent complete: 73.123 %
***** Current system time: Fri Jan 31 23:17:19 2020
***** Estimated time to completion:  7 sec.

***** Percent complete: 74.1247 %
***** Current system time: Fri Jan 31 23:17:19 2020
***** Estimated time to completion:  7 sec.

***** Percent complete: 75.1257 %
***** Current system time: Fri Jan 31 23:17:20 2020
***** Estimated time to completion:  7 sec.

***** Percent complete: 76.1258 %
***** Current system time: Fri Jan 31 23:17:20 2020
***** Estimated time to completion:  7 sec.

***** Percent complete: 77.1276 %
***** Current system time: Fri Jan 31 23:17:20 2020
***** Estimated time to completion:  6 sec.

***** Percent complete: 78.1293 %
***** Current system time: Fri Jan 31 23:17:20 2020
***** Estimated time to completion:  6 sec.

***** Percent complete: 79.131 %
***** Current system time: Fri Jan 31 23:17:21 2020
***** Estimated time to completion:  6 sec.

***** Percent complete: 80.1339 %
***** Current system time: Fri Jan 31 23:17:21 2020
***** Estimated time to completion:  5 sec.

***** Percent complete: 81.1344 %
***** Current system time: Fri Jan 31 23:17:21 2020
***** Estimated time to completion:  5 sec.

***** Percent complete: 82.1361 %
***** Current system time: Fri Jan 31 23:17:22 2020
***** Estimated time to completion:  5 sec.

***** Percent complete: 83.1378 %
***** Current system time: Fri Jan 31 23:17:22 2020
***** Estimated time to completion:  5 sec.

***** Percent complete: 84.1395 %
***** Current system time: Fri Jan 31 23:17:22 2020
***** Estimated time to completion:  4 sec.

***** Percent complete: 85.1413 %
***** Current system time: Fri Jan 31 23:17:22 2020
***** Estimated time to completion:  4 sec.

***** Percent complete: 86.143 %
***** Current system time: Fri Jan 31 23:17:23 2020
***** Estimated time to completion:  4 sec.

***** Percent complete: 87.1447 %
***** Current system time: Fri Jan 31 23:17:23 2020
***** Estimated time to completion:  3 sec.

***** Percent complete: 88.1464 %
***** Current system time: Fri Jan 31 23:17:23 2020
***** Estimated time to completion:  3 sec.

***** Percent complete: 89.1481 %
***** Current system time: Fri Jan 31 23:17:24 2020
***** Estimated time to completion:  3 sec.

***** Percent complete: 90.1498 %
***** Current system time: Fri Jan 31 23:17:24 2020
***** Estimated time to completion:  2 sec.

***** Percent complete: 91.1515 %
***** Current system time: Fri Jan 31 23:17:24 2020
***** Estimated time to completion:  2 sec.

***** Percent complete: 92.1533 %
***** Current system time: Fri Jan 31 23:17:24 2020
***** Estimated time to completion:  2 sec.

***** Percent complete: 93.155 %
***** Current system time: Fri Jan 31 23:17:25 2020
***** Estimated time to completion:  2 sec.

***** Percent complete: 94.1567 %
***** Current system time: Fri Jan 31 23:17:25 2020
***** Estimated time to completion:  1 sec.

***** Percent complete: 95.1584 %
***** Current system time: Fri Jan 31 23:17:25 2020
***** Estimated time to completion:  1 sec.

***** Percent complete: 96.1601 %
***** Current system time: Fri Jan 31 23:17:26 2020
***** Estimated time to completion:  1 sec.

***** Percent complete: 97.1618 %
***** Current system time: Fri Jan 31 23:17:26 2020
***** Estimated time to completion:  0 sec.

***** Percent complete: 98.1635 %
***** Current system time: Fri Jan 31 23:17:26 2020
***** Estimated time to completion:  0 sec.

***** Percent complete: 99.1652 %
***** Current system time: Fri Jan 31 23:17:26 2020
***** Estimated time to completion:  0 sec.

***** Problem read in and set up time: 0.065058 seconds
 ***** DCOP time: 0.432878 seconds.  Breakdown follows:
	Number Successful Steps Taken:		1
	Number Failed Steps Attempted:		0
	Number Jacobians Evaluated:		539
	Number Iteration Matrix Factorizations:	0
	Number Linear Solves:			539
	Number Failed Linear Solves:		0
	Number Residual Evaluations:		565
	Number Nonlinear Convergence Failures:	0
	Total Residual Load Time:		0.245943 seconds
	Total Jacobian Load Time:		0.0255024 seconds
	Total Linear Solution Time:		0.0925214 seconds

 ***** Transient Stepping time: 29.1384 seconds.  Breakdown follows:
	Number Successful Steps Taken:		25588
	Number Failed Steps Attempted:		0
	Number Jacobians Evaluated:		26061
	Number Iteration Matrix Factorizations:	0
	Number Linear Solves:			26061
	Number Failed Linear Solves:		0
	Number Residual Evaluations:		51649
	Number Nonlinear Convergence Failures:	0
	Total Residual Load Time:		21.6055 seconds
	Total Jacobian Load Time:		1.81152 seconds
	Total Linear Solution Time:		4.4335 seconds


***** Solution Summary *****
	Number Successful Steps Taken:		25589
	Number Failed Steps Attempted:		0
	Number Jacobians Evaluated:		26600
	Number Iteration Matrix Factorizations:	0
	Number Linear Solves:			26600
	Number Failed Linear Solves:		0
	Number Residual Evaluations:		52214
	Number Nonlinear Convergence Failures:	0
	Total Residual Load Time:		21.8515 seconds
	Total Jacobian Load Time:		1.83703 seconds
	Total Linear Solution Time:		4.52602 seconds


 ***** Measure Functions ***** 

RISE_DELAY = 1.466738e-10 with trig time= 5.353383e-10 and targ time= 6.820120e-10
Measure Start Time= 0.000000e+00	Measure End Time= 2.545640e-09

FALL_DELAY = 1.369183e-10 with trig time= 1.808158e-09 and targ time= 1.945076e-09
Measure Start Time= 0.000000e+00	Measure End Time= 2.545640e-09

RISE_SLEW = 3.379676e-10 with trig time= 6.023536e-10 and targ time= 9.403213e-10
Measure Start Time= 0.000000e+00	Measure End Time= 2.545640e-09

FALL_SLEW = 2.127126e-10 with trig time= 1.882092e-09 and targ time= 2.094804e-09
Measure Start Time= 0.000000e+00	Measure End Time= 2.545640e-09


***** Total Simulation Solvers Run Time: 29.5722 seconds
***** Total Elapsed Run Time:            29.6373 seconds
*****
***** End of Xyce(TM) Simulation
*****

Timing summary of 1 processor
                 Stats                   Count       CPU Time              Wall Time
---------------------------------------- ----- --------------------- ---------------------
Xyce                                         1       29.405 (100.0%)       29.638 (100.0%)
  Analysis                                   1       29.345 (99.80%)       29.572 (99.77%)
    Transient                                1       29.345 (99.80%)       29.572 (99.77%)
      Nonlinear Solve                    25589       28.570 (97.16%)       28.742 (96.97%)
        Residual                         52214       21.828 (74.23%)       21.905 (73.91%)
        Jacobian                         26600        1.846 ( 6.28%)        1.863 ( 6.29%)
        Linear Solve                     26600        4.514 (15.35%)        4.551 (15.35%)
      Successful DCOP Steps                  1        0.000 (<0.01%)        0.000 (<0.01%)
      Successful Step                    25588        0.495 ( 1.68%)        0.509 ( 1.72%)
  Netlist Import                             1        0.051 ( 0.17%)        0.056 ( 0.19%)
    Parse Context                            1        0.013 ( 0.04%)        0.015 ( 0.05%)
    Distribute Devices                       1        0.031 ( 0.11%)        0.032 ( 0.11%)
    Verify Devices                           1        0.000 (<0.01%)        0.000 (<0.01%)
    Instantiate                              1        0.006 ( 0.02%)        0.007 ( 0.02%)
  Late Initialization                        1        0.006 ( 0.02%)        0.007 ( 0.02%)
    Global Indices                           1        0.003 ( 0.01%)        0.003 ( 0.01%)
  Setup Matrix Structure                     1        0.002 (<0.01%)        0.002 (<0.01%)

